pglib_opf_case5658_epigrids.m
%%%%%%%%%%%%%%%%%%%%%%%%%%%%%%%%%%%%%%%%%%%%%%%%%%%%%%%%%%%%%%%%%%%%%%%%%%%
%%%%                                                                  %%%%%
%%%%    IEEE PES Power Grid Library - Optimal Power Flow - v23.07     %%%%%
%%%%          (https://github.com/power-grid-lib/pglib-opf)           %%%%%
%%%%               Benchmark Group - Typical Operations               %%%%%
%%%%                         23 - July - 2023                         %%%%%
%%%%                                                                  %%%%%
%%%%%%%%%%%%%%%%%%%%%%%%%%%%%%%%%%%%%%%%%%%%%%%%%%%%%%%%%%%%%%%%%%%%%%%%%%%
%
%   This is a synthetic electric grid model that covers the geographic
%   footprint of the state of Florida. The case is designed with a 500, 230,
%   138 and 69 kV transmission network to serve a load that roughly mimics the
%   actual population of its geographic footprint. The synthetic transmission
%   system was designed by algorithms described in [1] to be statistically
%   similar to actual transmission system models but without modeling any
%   actual lines.
%
%   One-line diagrams and other data formats available at:
%   https://github.com/WISPO-POP/SyntheticElectricNetworkModels
%   https://electricgrids.engr.tamu.edu
%
%   This synthetic dateset was developed as part of the ARPA-E GRID DATA
%   program as part of the EPIGRIDS project.
%
%   When publishing results based on this data, please cite:
%
%   [1] J. M. Snodgrass, "Tractable Algorithms for Constructing Electric Power Network Models,"
%      Ph.D. Thesis, The University of Wisconsin - Madison, 2021.
%
%   Copyright (c) 2022 by J. Snodgrass, S. Greene, B. Lesieutre, C. DeMarco
%   Licensed under the Creative Commons Attribution 4.0
%   International license, http://creativecommons.org/licenses/by/4.0/
%
function mpc = pglib_opf_case5658_epigrids
mpc.version = '2';
mpc.baseMVA = 100.0;

%% bus data
%	bus_i	type	Pd	Qd	Gs	Bs	area	Vm	Va	baseKV	zone	Vmax	Vmin
mpc.bus = [
	27810	 2	 0.0	 0.0	 0.0	 0.0	 6	    1.00000	    0.00000	 500.0	 1	    1.10000	    0.90000;
	27811	 2	 0.0	 0.0	 0.0	 0.0	 6	    1.00000	    0.00000	 500.0	 1	    1.10000	    0.90000;
	27812	 2	 0.0	 0.0	 0.0	 0.0	 6	    1.00000	    0.00000	 500.0	 1	    1.10000	    0.90000;
	27813	 2	 0.0	 0.0	 0.0	 0.0	 6	    1.00000	    0.00000	 230.0	 1	    1.10000	    0.90000;
	27814	 2	 0.0	 0.0	 0.0	 0.0	 6	    1.00000	    0.00000	 500.0	 1	    1.10000	    0.90000;
	27815	 2	 0.0	 0.0	 0.0	 0.0	 6	    1.00000	    0.00000	 500.0	 1	    1.10000	    0.90000;
	27816	 2	 0.0	 0.0	 0.0	 0.0	 6	    1.00000	    0.00000	 500.0	 1	    1.10000	    0.90000;
	27817	 2	 0.0	 0.0	 0.0	 0.0	 6	    1.00000	    0.00000	 230.0	 1	    1.10000	    0.90000;
	27818	 1	 0.0	 0.0	 0.0	 0.0	 6	    1.00000	    0.00000	 500.0	 1	    1.10000	    0.90000;
	27819	 2	 0.0	 0.0	 0.0	 0.0	 6	    1.00000	    0.00000	 230.0	 1	    1.10000	    0.90000;
	27820	 2	 0.0	 0.0	 0.0	 0.0	 6	    1.00000	    0.00000	 230.0	 1	    1.10000	    0.90000;
	27821	 2	 0.0	 0.0	 0.0	 0.0	 6	    1.00000	    0.00000	 500.0	 1	    1.10000	    0.90000;
	27822	 2	 0.0	 0.0	 0.0	 0.0	 6	    1.00000	    0.00000	 500.0	 1	    1.10000	    0.90000;
	27823	 2	 0.0	 0.0	 0.0	 0.0	 6	    1.00000	    0.00000	 138.0	 1	    1.10000	    0.90000;
	27824	 2	 0.0	 0.0	 0.0	 0.0	 6	    1.00000	    0.00000	 138.0	 1	    1.10000	    0.90000;
	27825	 2	 0.0	 0.0	 0.0	 0.0	 6	    1.00000	    0.00000	 230.0	 1	    1.10000	    0.90000;
	27826	 2	 0.0	 0.0	 0.0	 0.0	 6	    1.00000	    0.00000	 230.0	 1	    1.10000	    0.90000;
	27827	 2	 0.0	 0.0	 0.0	 0.0	 6	    1.00000	    0.00000	 230.0	 1	    1.10000	    0.90000;
	27828	 2	 0.0	 0.0	 0.0	 0.0	 6	    1.00000	    0.00000	 138.0	 1	    1.10000	    0.90000;
	27829	 2	 0.0	 0.0	 0.0	 0.0	 6	    1.00000	    0.00000	 138.0	 1	    1.10000	    0.90000;
	27830	 2	 0.0	 0.0	 0.0	 0.0	 6	    1.00000	    0.00000	 500.0	 1	    1.10000	    0.90000;
	27831	 2	 0.0	 0.0	 0.0	 0.0	 6	    1.00000	    0.00000	 500.0	 1	    1.10000	    0.90000;
	27832	 2	 0.0	 0.0	 0.0	 0.0	 6	    1.00000	    0.00000	 230.0	 1	    1.10000	    0.90000;
	27833	 2	 0.0	 0.0	 0.0	 0.0	 6	    1.00000	    0.00000	 138.0	 1	    1.10000	    0.90000;
	27834	 2	 0.0	 0.0	 0.0	 0.0	 6	    1.00000	    0.00000	 500.0	 1	    1.10000	    0.90000;
	27835	 2	 0.0	 0.0	 0.0	 0.0	 6	    1.00000	    0.00000	 230.0	 1	    1.10000	    0.90000;
	27836	 2	 0.0	 0.0	 0.0	 0.0	 6	    1.00000	    0.00000	 500.0	 1	    1.10000	    0.90000;
	27837	 2	 0.0	 0.0	 0.0	 0.0	 6	    1.00000	    0.00000	 500.0	 1	    1.10000	    0.90000;
	27838	 2	 0.0	 0.0	 0.0	 0.0	 6	    1.00000	    0.00000	 500.0	 1	    1.10000	    0.90000;
	27839	 2	 0.0	 0.0	 0.0	 0.0	 6	    1.00000	    0.00000	 500.0	 1	    1.10000	    0.90000;
	27840	 3	 0.0	 0.0	 0.0	 0.0	 6	    1.00000	    0.00000	 500.0	 1	    1.10000	    0.90000;
	27841	 2	 0.0	 0.0	 0.0	 0.0	 6	    1.00000	    0.00000	 500.0	 1	    1.10000	    0.90000;
	27842	 2	 0.0	 0.0	 0.0	 0.0	 6	    1.00000	    0.00000	 500.0	 1	    1.10000	    0.90000;
	27843	 2	 0.0	 0.0	 0.0	 0.0	 6	    1.00000	    0.00000	 230.0	 1	    1.10000	    0.90000;
	27844	 2	 0.0	 0.0	 0.0	 0.0	 6	    1.00000	    0.00000	 230.0	 1	    1.10000	    0.90000;
	27845	 2	 0.0	 0.0	 0.0	 0.0	 6	    1.00000	    0.00000	 500.0	 1	    1.10000	    0.90000;
	27846	 2	 0.0	 0.0	 0.0	 0.0	 6	    1.00000	    0.00000	 138.0	 1	    1.10000	    0.90000;
	27847	 2	 0.0	 0.0	 0.0	 0.0	 6	    1.00000	    0.00000	 230.0	 1	    1.10000	    0.90000;
	27848	 2	 0.0	 0.0	 0.0	 0.0	 6	    1.00000	    0.00000	 500.0	 1	    1.10000	    0.90000;
	27849	 2	 0.0	 0.0	 0.0	 0.0	 6	    1.00000	    0.00000	 230.0	 1	    1.10000	    0.90000;
	27850	 2	 0.0	 0.0	 0.0	 0.0	 6	    1.00000	    0.00000	 230.0	 1	    1.10000	    0.90000;
	27851	 2	 0.0	 0.0	 0.0	 0.0	 6	    1.00000	    0.00000	 138.0	 1	    1.10000	    0.90000;
	27852	 2	 0.0	 0.0	 0.0	 0.0	 6	    1.00000	    0.00000	 138.0	 1	    1.10000	    0.90000;
	27853	 2	 0.0	 0.0	 0.0	 0.0	 6	    1.00000	    0.00000	 138.0	 1	    1.10000	    0.90000;
	27854	 2	 0.0	 0.0	 0.0	 0.0	 6	    1.00000	    0.00000	 230.0	 1	    1.10000	    0.90000;
	27855	 2	 0.0	 0.0	 0.0	 0.0	 6	    1.00000	    0.00000	 500.0	 1	    1.10000	    0.90000;
	27856	 2	 0.0	 0.0	 0.0	 0.0	 6	    1.00000	    0.00000	 500.0	 1	    1.10000	    0.90000;
	27857	 2	 0.0	 0.0	 0.0	 0.0	 6	    1.00000	    0.00000	 230.0	 1	    1.10000	    0.90000;
	27858	 1	 0.0	 0.0	 0.0	 0.0	 6	    1.00000	    0.00000	 138.0	 1	    1.10000	    0.90000;
	27859	 1	 0.0	 0.0	 0.0	 0.0	 6	    1.00000	    0.00000	 500.0	 1	    1.10000	    0.90000;
	27860	 2	 0.0	 0.0	 0.0	 0.0	 6	    1.00000	    0.00000	 230.0	 1	    1.10000	    0.90000;
	27861	 2	 0.0	 0.0	 0.0	 0.0	 6	    1.00000	    0.00000	 138.0	 1	    1.10000	    0.90000;
	27862	 1	 0.0	 0.0	 0.0	 0.0	 6	    1.00000	    0.00000	 500.0	 1	    1.10000	    0.90000;
	27863	 2	 0.0	 0.0	 0.0	 0.0	 6	    1.00000	    0.00000	 500.0	 1	    1.10000	    0.90000;
	27864	 2	 0.0	 0.0	 0.0	 0.0	 6	    1.00000	    0.00000	 138.0	 1	    1.10000	    0.90000;
	27865	 1	 0.0	 0.0	 0.0	 0.0	 6	    1.00000	    0.00000	 230.0	 1	    1.10000	    0.90000;
	27866	 2	 0.0	 0.0	 0.0	 0.0	 6	    1.00000	    0.00000	 138.0	 1	    1.10000	    0.90000;
	27867	 1	 0.0	 0.0	 0.0	 0.0	 6	    1.00000	    0.00000	 230.0	 1	    1.10000	    0.90000;
	27868	 2	 0.0	 0.0	 0.0	 0.0	 6	    1.00000	    0.00000	 138.0	 1	    1.10000	    0.90000;
	27869	 2	 0.0	 0.0	 0.0	 0.0	 6	    1.00000	    0.00000	 138.0	 1	    1.10000	    0.90000;
	27870	 2	 0.0	 0.0	 0.0	 0.0	 6	    1.00000	    0.00000	 138.0	 1	    1.10000	    0.90000;
	27871	 2	 0.0	 0.0	 0.0	 0.0	 6	    1.00000	    0.00000	 69.0	 1	    1.10000	    0.90000;
	27872	 2	 0.0	 0.0	 0.0	 0.0	 6	    1.00000	    0.00000	 230.0	 1	    1.10000	    0.90000;
	27873	 2	 0.0	 0.0	 0.0	 0.0	 6	    1.00000	    0.00000	 138.0	 1	    1.10000	    0.90000;
	27874	 2	 0.0	 0.0	 0.0	 0.0	 6	    1.00000	    0.00000	 138.0	 1	    1.10000	    0.90000;
	27875	 1	 0.0	 0.0	 0.0	 0.0	 6	    1.00000	    0.00000	 138.0	 1	    1.10000	    0.90000;
	27876	 1	 0.0	 0.0	 0.0	 0.0	 6	    1.00000	    0.00000	 138.0	 1	    1.10000	    0.90000;
	27877	 2	 0.0	 0.0	 0.0	 0.0	 6	    1.00000	    0.00000	 138.0	 1	    1.10000	    0.90000;
	27878	 1	 0.0	 0.0	 0.0	 0.0	 6	    1.00000	    0.00000	 138.0	 1	    1.10000	    0.90000;
	27879	 2	 0.0	 0.0	 0.0	 0.0	 6	    1.00000	    0.00000	 138.0	 1	    1.10000	    0.90000;
	27880	 1	 0.0	 0.0	 0.0	 0.0	 6	    1.00000	    0.00000	 230.0	 1	    1.10000	    0.90000;
	27881	 1	 0.0	 0.0	 0.0	 0.0	 6	    1.00000	    0.00000	 138.0	 1	    1.10000	    0.90000;
	27882	 2	 0.0	 0.0	 0.0	 0.0	 6	    1.00000	    0.00000	 69.0	 1	    1.10000	    0.90000;
	27883	 2	 0.0	 0.0	 0.0	 0.0	 6	    1.00000	    0.00000	 138.0	 1	    1.10000	    0.90000;
	27884	 2	 0.0	 0.0	 0.0	 0.0	 6	    1.00000	    0.00000	 69.0	 1	    1.10000	    0.90000;
	27885	 2	 0.0	 0.0	 0.0	 0.0	 6	    1.00000	    0.00000	 138.0	 1	    1.10000	    0.90000;
	27886	 2	 0.0	 0.0	 0.0	 0.0	 6	    1.00000	    0.00000	 69.0	 1	    1.10000	    0.90000;
	27887	 2	 0.0	 0.0	 0.0	 0.0	 6	    1.00000	    0.00000	 69.0	 1	    1.10000	    0.90000;
	27888	 2	 0.0	 0.0	 0.0	 0.0	 6	    1.00000	    0.00000	 138.0	 1	    1.10000	    0.90000;
	27889	 1	 0.0	 0.0	 0.0	 0.0	 6	    1.00000	    0.00000	 138.0	 1	    1.10000	    0.90000;
	27890	 2	 0.0	 0.0	 0.0	 0.0	 6	    1.00000	    0.00000	 69.0	 1	    1.10000	    0.90000;
	27891	 2	 0.0	 0.0	 0.0	 0.0	 6	    1.00000	    0.00000	 138.0	 1	    1.10000	    0.90000;
	27892	 2	 0.0	 0.0	 0.0	 0.0	 6	    1.00000	    0.00000	 69.0	 1	    1.10000	    0.90000;
	27893	 2	 0.0	 0.0	 0.0	 0.0	 6	    1.00000	    0.00000	 69.0	 1	    1.10000	    0.90000;
	27894	 1	 0.0	 0.0	 0.0	 0.0	 6	    1.00000	    0.00000	 500.0	 1	    1.10000	    0.90000;
	27895	 2	 0.0	 0.0	 0.0	 0.0	 6	    1.00000	    0.00000	 500.0	 1	    1.10000	    0.90000;
	27896	 1	 0.0	 0.0	 0.0	 0.0	 6	    1.00000	    0.00000	 138.0	 1	    1.10000	    0.90000;
	27897	 2	 0.0	 0.0	 0.0	 0.0	 6	    1.00000	    0.00000	 138.0	 1	    1.10000	    0.90000;
	27898	 1	 0.0	 0.0	 0.0	 0.0	 6	    1.00000	    0.00000	 138.0	 1	    1.10000	    0.90000;
	27899	 2	 0.0	 0.0	 0.0	 0.0	 6	    1.00000	    0.00000	 138.0	 1	    1.10000	    0.90000;
	27900	 2	 0.0	 0.0	 0.0	 0.0	 6	    1.00000	    0.00000	 138.0	 1	    1.10000	    0.90000;
	27901	 2	 0.0	 0.0	 0.0	 0.0	 6	    1.00000	    0.00000	 138.0	 1	    1.10000	    0.90000;
	27902	 2	 0.0	 0.0	 0.0	 0.0	 6	    1.00000	    0.00000	 138.0	 1	    1.10000	    0.90000;
	27903	 2	 0.0	 0.0	 0.0	 0.0	 6	    1.00000	    0.00000	 138.0	 1	    1.10000	    0.90000;
	27904	 2	 0.0	 0.0	 0.0	 0.0	 6	    1.00000	    0.00000	 69.0	 1	    1.10000	    0.90000;
	27905	 2	 0.0	 0.0	 0.0	 0.0	 6	    1.00000	    0.00000	 69.0	 1	    1.10000	    0.90000;
	27906	 2	 0.0	 0.0	 0.0	 0.0	 6	    1.00000	    0.00000	 69.0	 1	    1.10000	    0.90000;
	27907	 2	 0.0	 0.0	 0.0	 0.0	 6	    1.00000	    0.00000	 69.0	 1	    1.10000	    0.90000;
	27908	 2	 0.0	 0.0	 0.0	 0.0	 6	    1.00000	    0.00000	 69.0	 1	    1.10000	    0.90000;
	27909	 1	 0.0	 0.0	 0.0	 0.0	 6	    1.00000	    0.00000	 138.0	 1	    1.10000	    0.90000;
	27910	 2	 0.0	 0.0	 0.0	 0.0	 6	    1.00000	    0.00000	 69.0	 1	    1.10000	    0.90000;
	27911	 2	 0.0	 0.0	 0.0	 0.0	 6	    1.00000	    0.00000	 69.0	 1	    1.10000	    0.90000;
	27912	 2	 0.0	 0.0	 0.0	 0.0	 6	    1.00000	    0.00000	 69.0	 1	    1.10000	    0.90000;
	27913	 2	 0.0	 0.0	 0.0	 0.0	 6	    1.00000	    0.00000	 69.0	 1	    1.10000	    0.90000;
	27914	 2	 0.0	 0.0	 0.0	 0.0	 6	    1.00000	    0.00000	 138.0	 1	    1.10000	    0.90000;
	28026	 1	 10.73	 6.48	 0.0	 0.0	 6	    1.00000	    0.00000	 69.0	 1	    1.10000	    0.90000;
	28027	 1	 0.0	 0.0	 0.0	 0.0	 6	    1.00000	    0.00000	 500.0	 1	    1.10000	    0.90000;
	28028	 1	 17.58	 9.13	 0.0	 0.0	 6	    1.00000	    0.00000	 138.0	 1	    1.10000	    0.90000;
	28029	 1	 0.0	 0.0	 0.0	 0.0	 6	    1.00000	    0.00000	 138.0	 1	    1.10000	    0.90000;
	28030	 1	 13.29	 7.2	 0.0	 0.0	 6	    1.00000	    0.00000	 69.0	 1	    1.10000	    0.90000;
	28031	 1	 7.49	 3.64	 0.0	 0.0	 6	    1.00000	    0.00000	 69.0	 1	    1.10000	    0.90000;
	28032	 1	 0.0	 0.0	 0.0	 0.0	 6	    1.00000	    0.00000	 138.0	 1	    1.10000	    0.90000;
	28033	 1	 10.99	 5.4	 0.0	 0.0	 6	    1.00000	    0.00000	 69.0	 1	    1.10000	    0.90000;
	28034	 1	 5.87	 3.23	 0.0	 0.0	 6	    1.00000	    0.00000	 69.0	 1	    1.10000	    0.90000;
	28035	 1	 12.1	 6.6	 0.0	 0.0	 6	    1.00000	    0.00000	 69.0	 1	    1.10000	    0.90000;
	28036	 1	 3.4	 1.99	 0.0	 0.0	 6	    1.00000	    0.00000	 69.0	 1	    1.10000	    0.90000;
	28037	 1	 9.32	 5.84	 0.0	 0.0	 6	    1.00000	    0.00000	 69.0	 1	    1.10000	    0.90000;
	28038	 1	 0.0	 0.0	 0.0	 0.0	 6	    1.00000	    0.00000	 138.0	 1	    1.10000	    0.90000;
	28039	 1	 7.74	 4.47	 0.0	 0.0	 6	    1.00000	    0.00000	 69.0	 1	    1.10000	    0.90000;
	28040	 1	 4.41	 2.27	 0.0	 0.0	 6	    1.00000	    0.00000	 69.0	 1	    1.10000	    0.90000;
	28041	 1	 0.0	 0.0	 0.0	 0.0	 6	    1.00000	    0.00000	 138.0	 1	    1.10000	    0.90000;
	28042	 1	 6.64	 3.35	 0.0	 0.0	 6	    1.00000	    0.00000	 138.0	 1	    1.10000	    0.90000;
	28043	 1	 6.63	 3.42	 0.0	 0.0	 6	    1.00000	    0.00000	 69.0	 1	    1.10000	    0.90000;
	28044	 1	 4.76	 2.19	 0.0	 0.0	 6	    1.00000	    0.00000	 69.0	 1	    1.10000	    0.90000;
	28045	 1	 7.73	 4.34	 0.0	 0.0	 6	    1.00000	    0.00000	 69.0	 1	    1.10000	    0.90000;
	28046	 1	 2.54	 1.37	 0.0	 0.0	 6	    1.00000	    0.00000	 69.0	 1	    1.10000	    0.90000;
	28047	 1	 6.08	 3.07	 0.0	 0.0	 6	    1.00000	    0.00000	 69.0	 1	    1.10000	    0.90000;
	28048	 1	 7.54	 4.03	 0.0	 0.0	 6	    1.00000	    0.00000	 69.0	 1	    1.10000	    0.90000;
	28049	 1	 3.18	 1.57	 0.0	 0.0	 6	    1.00000	    0.00000	 69.0	 1	    1.10000	    0.90000;
	28050	 1	 13.28	 5.91	 0.0	 0.0	 6	    1.00000	    0.00000	 69.0	 1	    1.10000	    0.90000;
	28051	 1	 2.35	 1.4	 0.0	 0.0	 6	    1.00000	    0.00000	 69.0	 1	    1.10000	    0.90000;
	28052	 1	 13.05	 7.83	 0.0	 0.0	 6	    1.00000	    0.00000	 69.0	 1	    1.10000	    0.90000;
	28053	 1	 11.47	 6.32	 0.0	 0.0	 6	    1.00000	    0.00000	 69.0	 1	    1.10000	    0.90000;
	28054	 1	 9.74	 5.02	 0.0	 0.0	 6	    1.00000	    0.00000	 69.0	 1	    1.10000	    0.90000;
	28055	 1	 11.29	 6.44	 0.0	 0.0	 6	    1.00000	    0.00000	 138.0	 1	    1.10000	    0.90000;
	28056	 1	 10.73	 5.77	 0.0	 0.0	 6	    1.00000	    0.00000	 69.0	 1	    1.10000	    0.90000;
	28057	 1	 0.0	 0.0	 0.0	 0.0	 6	    1.00000	    0.00000	 138.0	 1	    1.10000	    0.90000;
	28058	 1	 11.82	 5.04	 0.0	 0.0	 6	    1.00000	    0.00000	 138.0	 1	    1.10000	    0.90000;
	28059	 1	 18.77	 11.45	 0.0	 0.0	 6	    1.00000	    0.00000	 138.0	 1	    1.10000	    0.90000;
	28060	 1	 8.02	 4.77	 0.0	 0.0	 6	    1.00000	    0.00000	 69.0	 1	    1.10000	    0.90000;
	28061	 1	 3.15	 1.7	 0.0	 0.0	 6	    1.00000	    0.00000	 69.0	 1	    1.10000	    0.90000;
	28062	 1	 0.0	 0.0	 0.0	 0.0	 6	    1.00000	    0.00000	 138.0	 1	    1.10000	    0.90000;
	28063	 1	 20.05	 7.5	 0.0	 0.0	 6	    1.00000	    0.00000	 69.0	 1	    1.10000	    0.90000;
	28064	 1	 5.66	 3.07	 0.0	 0.0	 6	    1.00000	    0.00000	 69.0	 1	    1.10000	    0.90000;
	28065	 1	 54.56	 31.47	 0.0	 0.0	 6	    1.00000	    0.00000	 500.0	 1	    1.10000	    0.90000;
	28066	 1	 0.0	 0.0	 0.0	 0.0	 6	    1.00000	    0.00000	 138.0	 1	    1.10000	    0.90000;
	28067	 1	 2.79	 1.55	 0.0	 0.0	 6	    1.00000	    0.00000	 69.0	 1	    1.10000	    0.90000;
	28068	 1	 1.33	 0.62	 0.0	 0.0	 6	    1.00000	    0.00000	 69.0	 1	    1.10000	    0.90000;
	28069	 1	 9.9	 4.34	 0.0	 0.0	 6	    1.00000	    0.00000	 69.0	 1	    1.10000	    0.90000;
	28070	 1	 0.0	 0.0	 0.0	 0.0	 6	    1.00000	    0.00000	 138.0	 1	    1.10000	    0.90000;
	28071	 1	 0.0	 0.0	 0.0	 0.0	 6	    1.00000	    0.00000	 138.0	 1	    1.10000	    0.90000;
	28072	 1	 0.0	 0.0	 0.0	 0.0	 6	    1.00000	    0.00000	 138.0	 1	    1.10000	    0.90000;
	28073	 1	 4.94	 2.46	 0.0	 0.0	 6	    1.00000	    0.00000	 69.0	 1	    1.10000	    0.90000;
	28074	 1	 3.07	 1.47	 0.0	 0.0	 6	    1.00000	    0.00000	 69.0	 1	    1.10000	    0.90000;
	28075	 1	 0.0	 0.0	 0.0	 0.0	 6	    1.00000	    0.00000	 138.0	 1	    1.10000	    0.90000;
	28076	 1	 7.56	 3.81	 0.0	 0.0	 6	    1.00000	    0.00000	 138.0	 1	    1.10000	    0.90000;
	28077	 1	 8.87	 4.52	 0.0	 0.0	 6	    1.00000	    0.00000	 69.0	 1	    1.10000	    0.90000;
	28078	 1	 3.03	 1.44	 0.0	 0.0	 6	    1.00000	    0.00000	 69.0	 1	    1.10000	    0.90000;
	28079	 1	 17.65	 7.84	 0.0	 0.0	 6	    1.00000	    0.00000	 69.0	 1	    1.10000	    0.90000;
	28080	 1	 10.14	 4.97	 0.0	 0.0	 6	    1.00000	    0.00000	 69.0	 1	    1.10000	    0.90000;
	28081	 1	 2.64	 1.62	 0.0	 0.0	 6	    1.00000	    0.00000	 69.0	 1	    1.10000	    0.90000;
	28082	 1	 0.0	 0.0	 0.0	 0.0	 6	    1.00000	    0.00000	 138.0	 1	    1.10000	    0.90000;
	28083	 1	 14.67	 6.27	 0.0	 0.0	 6	    1.00000	    0.00000	 69.0	 1	    1.10000	    0.90000;
	28084	 1	 12.82	 2.94	 0.0	 0.0	 6	    1.00000	    0.00000	 69.0	 1	    1.10000	    0.90000;
	28085	 1	 8.31	 4.51	 0.0	 0.0	 6	    1.00000	    0.00000	 69.0	 1	    1.10000	    0.90000;
	28086	 1	 10.23	 4.27	 0.0	 0.0	 6	    1.00000	    0.00000	 69.0	 1	    1.10000	    0.90000;
	28087	 1	 0.0	 0.0	 0.0	 0.0	 6	    1.00000	    0.00000	 138.0	 1	    1.10000	    0.90000;
	28088	 1	 0.0	 0.0	 0.0	 0.0	 6	    1.00000	    0.00000	 230.0	 1	    1.10000	    0.90000;
	28089	 1	 10.39	 6.48	 0.0	 0.0	 6	    1.00000	    0.00000	 138.0	 1	    1.10000	    0.90000;
	28090	 1	 14.92	 7.3	 0.0	 0.0	 6	    1.00000	    0.00000	 69.0	 1	    1.10000	    0.90000;
	28091	 1	 1.39	 0.69	 0.0	 0.0	 6	    1.00000	    0.00000	 69.0	 1	    1.10000	    0.90000;
	28092	 1	 0.0	 0.0	 0.0	 0.0	 6	    1.00000	    0.00000	 138.0	 1	    1.10000	    0.90000;
	28093	 1	 0.0	 0.0	 0.0	 0.0	 6	    1.00000	    0.00000	 138.0	 1	    1.10000	    0.90000;
	28094	 1	 4.73	 2.37	 0.0	 0.0	 6	    1.00000	    0.00000	 69.0	 1	    1.10000	    0.90000;
	28095	 1	 6.03	 3.31	 0.0	 0.0	 6	    1.00000	    0.00000	 69.0	 1	    1.10000	    0.90000;
	28096	 1	 4.35	 2.0	 0.0	 0.0	 6	    1.00000	    0.00000	 69.0	 1	    1.10000	    0.90000;
	28097	 1	 9.3	 5.54	 0.0	 0.0	 6	    1.00000	    0.00000	 69.0	 1	    1.10000	    0.90000;
	28098	 1	 23.61	 8.04	 0.0	 0.0	 6	    1.00000	    0.00000	 69.0	 1	    1.10000	    0.90000;
	28099	 1	 7.95	 4.24	 0.0	 0.0	 6	    1.00000	    0.00000	 138.0	 1	    1.10000	    0.90000;
	28100	 1	 0.0	 0.0	 0.0	 0.0	 6	    1.00000	    0.00000	 138.0	 1	    1.10000	    0.90000;
	28101	 1	 0.0	 0.0	 0.0	 0.0	 6	    1.00000	    0.00000	 138.0	 1	    1.10000	    0.90000;
	28102	 1	 19.63	 9.49	 0.0	 0.0	 6	    1.00000	    0.00000	 69.0	 1	    1.10000	    0.90000;
	28103	 1	 9.23	 5.55	 0.0	 0.0	 6	    1.00000	    0.00000	 138.0	 1	    1.10000	    0.90000;
	28104	 1	 0.0	 0.0	 0.0	 0.0	 6	    1.00000	    0.00000	 138.0	 1	    1.10000	    0.90000;
	28105	 1	 0.0	 0.0	 0.0	 0.0	 6	    1.00000	    0.00000	 138.0	 1	    1.10000	    0.90000;
	28106	 1	 15.86	 7.75	 0.0	 0.0	 6	    1.00000	    0.00000	 69.0	 1	    1.10000	    0.90000;
	28107	 1	 20.85	 9.24	 0.0	 0.0	 6	    1.00000	    0.00000	 69.0	 1	    1.10000	    0.90000;
	28108	 1	 0.0	 0.0	 0.0	 0.0	 6	    1.00000	    0.00000	 138.0	 1	    1.10000	    0.90000;
	28109	 1	 8.51	 4.16	 0.0	 0.0	 6	    1.00000	    0.00000	 69.0	 1	    1.10000	    0.90000;
	28110	 1	 15.93	 8.79	 0.0	 0.0	 6	    1.00000	    0.00000	 69.0	 1	    1.10000	    0.90000;
	28111	 1	 6.5	 3.53	 0.0	 0.0	 6	    1.00000	    0.00000	 69.0	 1	    1.10000	    0.90000;
	28112	 1	 0.0	 0.0	 0.0	 0.0	 6	    1.00000	    0.00000	 230.0	 1	    1.10000	    0.90000;
	28113	 1	 15.01	 7.34	 0.0	 0.0	 6	    1.00000	    0.00000	 69.0	 1	    1.10000	    0.90000;
	28114	 1	 6.66	 3.49	 0.0	 0.0	 6	    1.00000	    0.00000	 69.0	 1	    1.10000	    0.90000;
	28115	 1	 10.42	 5.38	 0.0	 0.0	 6	    1.00000	    0.00000	 69.0	 1	    1.10000	    0.90000;
	28116	 1	 6.17	 3.72	 0.0	 0.0	 6	    1.00000	    0.00000	 69.0	 1	    1.10000	    0.90000;
	28117	 1	 9.54	 5.49	 0.0	 0.0	 6	    1.00000	    0.00000	 69.0	 1	    1.10000	    0.90000;
	28118	 1	 9.04	 4.16	 0.0	 0.0	 6	    1.00000	    0.00000	 69.0	 1	    1.10000	    0.90000;
	28119	 1	 8.88	 4.93	 0.0	 0.0	 6	    1.00000	    0.00000	 69.0	 1	    1.10000	    0.90000;
	28120	 1	 1.4	 0.78	 0.0	 0.0	 6	    1.00000	    0.00000	 69.0	 1	    1.10000	    0.90000;
...
];

%% generator data
%	bus	Pg	Qg	Qmax	Qmin	Vg	mBase	status	Pmax	Pmin	Pc1	Pc2	Qc1min	Qc1max	Qc2min	Qc2max	ramp_agc	ramp_10	ramp_30	ramp_q	apf
mpc.gen = [
	27810	 1033.5	 81.55	 523.1	 -360.0	 1.0	 100.0	 1	 1080.0	 987.0	 0.0	 0.0	 0.0	 0.0	 0.0	 0.0	 0.0	 0.0	 0.0	 0.0	 0.0	0.0000	0.0000; % NUC
	27810	 1030.5	 81.55	 523.1	 -360.0	 1.0	 100.0	 1	 1080.0	 981.0	 0.0	 0.0	 0.0	 0.0	 0.0	 0.0	 0.0	 0.0	 0.0	 0.0	 0.0	0.8204	0.8230; % COW
	27811	 542.95	 55.55	 356.4	 -245.3	 1.0	 100.0	 1	 735.9	 350.0	 0.0	 0.0	 0.0	 0.0	 0.0	 0.0	 0.0	 0.0	 0.0	 0.0	 735.9	0.8204	0.8230; % COW
	27811	 542.95	 55.55	 356.4	 -245.3	 1.0	 100.0	 1	 735.9	 350.0	 0.0	 0.0	 0.0	 0.0	 0.0	 0.0	 0.0	 0.0	 0.0	 0.0	 735.9	0.8204	0.8230; % COW
	27812	 439.5	 51.3	 328.9	 -226.3	 1.0	 100.0	 1	 679.0	 200.0	 0.0	 0.0	 0.0	 0.0	 0.0	 0.0	 0.0	 0.0	 0.0	 0.0	 679.0	0.8204	0.8230; % COW
	27812	 439.5	 51.3	 328.9	 -226.3	 1.0	 100.0	 1	 679.0	 200.0	 0.0	 0.0	 0.0	 0.0	 0.0	 0.0	 0.0	 0.0	 0.0	 0.0	 679.0	0.8204	0.8230; % COW
	27813	 323.1	 42.0	 269.4	 -185.4	 1.0	 100.0	 1	 556.2	 90.0	 0.0	 0.0	 0.0	 0.0	 0.0	 0.0	 0.0	 0.0	 0.0	 0.0	 556.2	0.5173	0.5177; % NG
	27813	 318.1	 42.0	 269.4	 -185.4	 1.0	 100.0	 1	 556.2	 80.0	 0.0	 0.0	 0.0	 0.0	 0.0	 0.0	 0.0	 0.0	 0.0	 0.0	 556.2	0.8204	0.8230; % COW
	27814	 179.1	 29.1	 125.9	 -67.7	 1.0	 100.0	 1	 203.2	 155.0	 0.0	 0.0	 0.0	 0.0	 0.0	 0.0	 0.0	 0.0	 0.0	 0.0	 203.2	0.5173	0.5177; % NG
	27814	 279.75	 35.1	 225.0	 -154.8	 1.0	 100.0	 1	 464.5	 95.0	 0.0	 0.0	 0.0	 0.0	 0.0	 0.0	 0.0	 0.0	 0.0	 0.0	 464.5	0.5173	0.5177; % NG
	27814	 277.25	 35.1	 225.0	 -154.8	 1.0	 100.0	 1	 464.5	 90.0	 0.0	 0.0	 0.0	 0.0	 0.0	 0.0	 0.0	 0.0	 0.0	 0.0	 464.5	0.5173	0.5177; % NG
	27814	 99.295	 18.55	 80.4	 -43.3	 1.0	 100.0	 1	 129.8	 68.79	 0.0	 0.0	 0.0	 0.0	 0.0	 0.0	 0.0	 0.0	 0.0	 0.0	 129.8	0.5173	0.5177; % NG
	27815	 38.0	 8.85	 38.4	 -20.7	 1.0	 100.0	 1	 62.0	 14.0	 0.0	 0.0	 0.0	 0.0	 0.0	 0.0	 0.0	 0.0	 0.0	 0.0	 62.0	0.5173	0.5177; % NG
	27815	 317.75	 33.65	 215.8	 -148.5	 1.0	 100.0	 1	 445.5	 190.0	 0.0	 0.0	 0.0	 0.0	 0.0	 0.0	 0.0	 0.0	 0.0	 0.0	 445.5	0.8204	0.8230; % COW
	27815	 315.25	 33.65	 215.8	 -148.5	 1.0	 100.0	 1	 445.5	 185.0	 0.0	 0.0	 0.0	 0.0	 0.0	 0.0	 0.0	 0.0	 0.0	 0.0	 445.5	0.5173	0.5177; % NG
	27815	 315.25	 33.65	 215.8	 -148.5	 1.0	 100.0	 1	 445.5	 185.0	 0.0	 0.0	 0.0	 0.0	 0.0	 0.0	 0.0	 0.0	 0.0	 0.0	 445.5	0.8204	0.8230; % COW
	27815	 321.5	 36.7	 235.4	 -162.0	 1.0	 100.0	 1	 486.0	 157.0	 0.0	 0.0	 0.0	 0.0	 0.0	 0.0	 0.0	 0.0	 0.0	 0.0	 486.0	0.8204	0.8230; % COW
	27816	 482.1	 55.8	 358.0	 -246.4	 1.0	 100.0	 1	 739.2	 225.0	 0.0	 0.0	 0.0	 0.0	 0.0	 0.0	 0.0	 0.0	 0.0	 0.0	 739.2	0.8204	0.8230; % COW
	27816	 482.1	 55.8	 358.0	 -246.4	 1.0	 100.0	 1	 739.2	 225.0	 0.0	 0.0	 0.0	 0.0	 0.0	 0.0	 0.0	 0.0	 0.0	 0.0	 739.2	0.8204	0.8230; % COW
	27816	 601.02	 67.2	 431.2	 -296.8	 1.0	 100.0	 1	 890.4	 311.64	 0.0	 0.0	 0.0	 0.0	 0.0	 0.0	 0.0	 0.0	 0.0	 0.0	 0.0	0.5173	0.5177; % NG
	27816	 270.25	 33.25	 213.3	 -146.8	 1.0	 100.0	 1	 440.5	 100.0	 0.0	 0.0	 0.0	 0.0	 0.0	 0.0	 0.0	 0.0	 0.0	 0.0	 440.5	0.5173	0.5177; % NG
	27816	 321.9	 39.55	 253.7	 -174.6	 1.0	 100.0	 1	 523.8	 120.0	 0.0	 0.0	 0.0	 0.0	 0.0	 0.0	 0.0	 0.0	 0.0	 0.0	 523.8	0.8204	0.8230; % COW
	27817	 241.2	 0.0	 182.0	 -182.0	 1.0	 100.0	 1	 402.0	 80.4	 0.0	 0.0	 0.0	 0.0	 0.0	 0.0	 0.0	 0.0	 0.0	 0.0	 402.0	0.5173	0.5177; % NG
	27817	 241.2	 0.0	 182.0	 -182.0	 1.0	 100.0	 1	 402.0	 80.4	 0.0	 0.0	 0.0	 0.0	 0.0	 0.0	 0.0	 0.0	 0.0	 0.0	 402.0	0.5173	0.5177; % NG
	27819	 78.0	 9.5	 61.0	 -42.0	 1.0	 100.0	 1	 126.0	 30.0	 0.0	 0.0	 0.0	 0.0	 0.0	 0.0	 0.0	 0.0	 0.0	 0.0	 126.0	0.8204	0.8230; % COW
	27819	 14.8	 2.0	 12.9	 -8.9	 1.0	 100.0	 1	 26.6	 3.0	 0.0	 0.0	 0.0	 0.0	 0.0	 0.0	 0.0	 0.0	 0.0	 0.0	 26.6	0.7001	0.7018; % PEL
	27819	 64.25	 7.8	 50.1	 -34.5	 1.0	 100.0	 1	 103.5	 25.0	 0.0	 0.0	 0.0	 0.0	 0.0	 0.0	 0.0	 0.0	 0.0	 0.0	 103.5	0.5173	0.5177; % NG
	27819	 194.5	 18.8	 120.6	 -83.0	 1.0	 100.0	 1	 249.0	 140.0	 0.0	 0.0	 0.0	 0.0	 0.0	 0.0	 0.0	 0.0	 0.0	 0.0	 249.0	0.5173	0.5177; % NG
	27819	 271.9	 27.45	 176.2	 -121.3	 1.0	 100.0	 1	 363.8	 180.0	 0.0	 0.0	 0.0	 0.0	 0.0	 0.0	 0.0	 0.0	 0.0	 0.0	 363.8	0.8204	0.8230; % COW
	27819	 120.0	 9.05	 58.1	 -40.0	 1.0	 100.0	 1	 120.0	 120.0	 0.0	 0.0	 0.0	 0.0	 0.0	 0.0	 0.0	 0.0	 0.0	 0.0	 120.0	0.5173	0.5177; % NG
	27820	 186.24	 0.0	 140.5	 -140.5	 1.0	 100.0	 1	 310.4	 62.08	 0.0	 0.0	 0.0	 0.0	 0.0	 0.0	 0.0	 0.0	 0.0	 0.0	 310.4	0.5173	0.5177; % NG
	27820	 186.24	 0.0	 140.5	 -140.5	 1.0	 100.0	 1	 310.4	 62.08	 0.0	 0.0	 0.0	 0.0	 0.0	 0.0	 0.0	 0.0	 0.0	 0.0	 310.4	0.8204	0.8230; % COW
	27821	 438.5	 75.45	 326.6	 -175.7	 1.0	 100.0	 1	 527.0	 350.0	 0.0	 0.0	 0.0	 0.0	 0.0	 0.0	 0.0	 0.0	 0.0	 0.0	 527.0	0.8204	0.8230; % COW
	27821	 438.5	 75.45	 326.6	 -175.7	 1.0	 100.0	 1	 527.0	 350.0	 0.0	 0.0	 0.0	 0.0	 0.0	 0.0	 0.0	 0.0	 0.0	 0.0	 527.0	0.5173	0.5177; % NG
	27821	 265.0	 42.7	 184.7	 -99.3	 1.0	 100.0	 1	 298.0	 232.0	 0.0	 0.0	 0.0	 0.0	 0.0	 0.0	 0.0	 0.0	 0.0	 0.0	 298.0	0.5173	0.5177; % NG
	27821	 265.0	 42.7	 184.7	 -99.3	 1.0	 100.0	 1	 298.0	 232.0	 0.0	 0.0	 0.0	 0.0	 0.0	 0.0	 0.0	 0.0	 0.0	 0.0	 298.0	0.8204	0.8230; % COW
	27821	 265.0	 42.7	 184.7	 -99.3	 1.0	 100.0	 1	 298.0	 232.0	 0.0	 0.0	 0.0	 0.0	 0.0	 0.0	 0.0	 0.0	 0.0	 0.0	 298.0	0.5173	0.5177; % NG
	27821	 265.0	 42.7	 184.7	 -99.3	 1.0	 100.0	 1	 298.0	 232.0	 0.0	 0.0	 0.0	 0.0	 0.0	 0.0	 0.0	 0.0	 0.0	 0.0	 298.0	0.5173	0.5177; % NG
	27821	 265.0	 42.7	 184.7	 -99.3	 1.0	 100.0	 1	 298.0	 232.0	 0.0	 0.0	 0.0	 0.0	 0.0	 0.0	 0.0	 0.0	 0.0	 0.0	 298.0	0.5173	0.5177; % NG
	27821	 265.0	 42.7	 184.7	 -99.3	 1.0	 100.0	 1	 298.0	 232.0	 0.0	 0.0	 0.0	 0.0	 0.0	 0.0	 0.0	 0.0	 0.0	 0.0	 298.0	0.5173	0.5177; % NG
	27822	 38.55	 4.7	 30.1	 -20.7	 1.0	 100.0	 1	 62.1	 15.0	 0.0	 0.0	 0.0	 0.0	 0.0	 0.0	 0.0	 0.0	 0.0	 0.0	 62.1	0.5173	0.5177; % NG
	27822	 38.55	 4.7	 30.1	 -20.7	 1.0	 100.0	 1	 62.1	 15.0	 0.0	 0.0	 0.0	 0.0	 0.0	 0.0	 0.0	 0.0	 0.0	 0.0	 62.1	0.5173	0.5177; % NG
	27822	 38.55	 4.7	 30.1	 -20.7	 1.0	 100.0	 1	 62.1	 15.0	 0.0	 0.0	 0.0	 0.0	 0.0	 0.0	 0.0	 0.0	 0.0	 0.0	 62.1	0.5173	0.5177; % NG
	27822	 38.55	 4.7	 30.1	 -20.7	 1.0	 100.0	 1	 62.1	 15.0	 0.0	 0.0	 0.0	 0.0	 0.0	 0.0	 0.0	 0.0	 0.0	 0.0	 62.1	0.5173	0.5177; % NG
	27822	 306.85	 42.55	 273.0	 -187.9	 1.0	 100.0	 1	 563.7	 50.0	 0.0	 0.0	 0.0	 0.0	 0.0	 0.0	 0.0	 0.0	 0.0	 0.0	 563.7	0.8204	0.8230; % COW
	27822	 238.75	 42.6	 184.4	 -99.2	 1.0	 100.0	 1	 297.5	 180.0	 0.0	 0.0	 0.0	 0.0	 0.0	 0.0	 0.0	 0.0	 0.0	 0.0	 297.5	0.8204	0.8230; % COW
	27822	 238.75	 42.6	 184.4	 -99.2	 1.0	 100.0	 1	 297.5	 180.0	 0.0	 0.0	 0.0	 0.0	 0.0	 0.0	 0.0	 0.0	 0.0	 0.0	 297.5	0.5173	0.5177; % NG
	27823	 190.8	 41.75	 180.7	 -97.2	 1.0	 100.0	 1	 291.6	 90.0	 0.0	 0.0	 0.0	 0.0	 0.0	 0.0	 0.0	 0.0	 0.0	 0.0	 291.6	0.5173	0.5177; % NG
	27824	 13.8	 3.5	 15.2	 -8.2	 1.0	 100.0	 1	 24.6	 3.0	 0.0	 0.0	 0.0	 0.0	 0.0	 0.0	 0.0	 0.0	 0.0	 0.0	 24.6	0.7001	0.7018; % PEL
	27824	 13.8	 3.5	 15.2	 -8.2	 1.0	 100.0	 1	 24.6	 3.0	 0.0	 0.0	 0.0	 0.0	 0.0	 0.0	 0.0	 0.0	 0.0	 0.0	 24.6	0.5173	0.5177; % NG
	27824	 48.0	 10.75	 46.5	 -25.0	 1.0	 100.0	 1	 75.0	 21.0	 0.0	 0.0	 0.0	 0.0	 0.0	 0.0	 0.0	 0.0	 0.0	 0.0	 75.0	0.5173	0.5177; % NG
	27824	 73.05	 13.8	 59.6	 -32.0	 1.0	 100.0	 1	 96.1	 50.0	 0.0	 0.0	 0.0	 0.0	 0.0	 0.0	 0.0	 0.0	 0.0	 0.0	 96.1	0.5173	0.5177; % NG
	27824	 157.85	 35.9	 155.4	 -83.6	 1.0	 100.0	 1	 250.7	 65.0	 0.0	 0.0	 0.0	 0.0	 0.0	 0.0	 0.0	 0.0	 0.0	 0.0	 250.7	0.5173	0.5177; % NG
	27825	 149.8	 31.45	 136.1	 -73.2	 1.0	 100.0	 1	 219.6	 80.0	 0.0	 0.0	 0.0	 0.0	 0.0	 0.0	 0.0	 0.0	 0.0	 0.0	 219.6	0.5173	0.5177; % NG
	27825	 128.4	 27.5	 118.9	 -63.9	 1.0	 100.0	 1	 191.8	 65.0	 0.0	 0.0	 0.0	 0.0	 0.0	 0.0	 0.0	 0.0	 0.0	 0.0	 191.8	0.8204	0.8230; % COW
	27826	 37.7	 4.15	 26.8	 -18.5	 1.0	 100.0	 1	 55.4	 20.0	 0.0	 0.0	 0.0	 0.0	 0.0	 0.0	 0.0	 0.0	 0.0	 0.0	 55.4	0.5173	0.5177; % NG
	27826	 37.7	 4.15	 26.8	 -18.5	 1.0	 100.0	 1	 55.4	 20.0	 0.0	 0.0	 0.0	 0.0	 0.0	 0.0	 0.0	 0.0	 0.0	 0.0	 55.4	0.7001	0.7018; % PEL
	27826	 37.7	 4.15	 26.8	 -18.5	 1.0	 100.0	 1	 55.4	 20.0	 0.0	 0.0	 0.0	 0.0	 0.0	 0.0	 0.0	 0.0	 0.0	 0.0	 55.4	0.5173	0.5177; % NG
	27826	 37.7	 4.15	 26.8	 -18.5	 1.0	 100.0	 1	 55.4	 20.0	 0.0	 0.0	 0.0	 0.0	 0.0	 0.0	 0.0	 0.0	 0.0	 0.0	 55.4	0.7001	0.7018; % PEL
	27826	 286.415	 31.8	 204.0	 -140.4	 1.0	 100.0	 1	 421.2	 151.63	 0.0	 0.0	 0.0	 0.0	 0.0	 0.0	 0.0	 0.0	 0.0	 0.0	 421.2	0.5173	0.5177; % NG
	27826	 150.945	 29.8	 129.0	 -69.4	 1.0	 100.0	 1	 208.2	 93.69	 0.0	 0.0	 0.0	 0.0	 0.0	 0.0	 0.0	 0.0	 0.0	 0.0	 208.2	0.8204	0.8230; % COW
	27826	 150.945	 29.8	 129.0	 -69.4	 1.0	 100.0	 1	 208.2	 93.69	 0.0	 0.0	 0.0	 0.0	 0.0	 0.0	 0.0	 0.0	 0.0	 0.0	 208.2	0.5173	0.5177; % NG
	27826	 150.945	 29.8	 129.0	 -69.4	 1.0	 100.0	 1	 208.2	 93.69	 0.0	 0.0	 0.0	 0.0	 0.0	 0.0	 0.0	 0.0	 0.0	 0.0	 208.2	0.5173	0.5177; % NG
	27826	 150.945	 29.8	 129.0	 -69.4	 1.0	 100.0	 1	 208.2	 93.69	 0.0	 0.0	 0.0	 0.0	 0.0	 0.0	 0.0	 0.0	 0.0	 0.0	 208.2	0.5173	0.5177; % NG
	27827	 150.0	 28.6	 123.9	 -66.7	 1.0	 100.0	 1	 200.0	 100.0	 0.0	 0.0	 0.0	 0.0	 0.0	 0.0	 0.0	 0.0	 0.0	 0.0	 200.0	0.5173	0.5177; % NG
	27827	 150.0	 28.6	 123.9	 -66.7	 1.0	 100.0	 1	 200.0	 100.0	 0.0	 0.0	 0.0	 0.0	 0.0	 0.0	 0.0	 0.0	 0.0	 0.0	 200.0	0.5173	0.5177; % NG
	27827	 150.0	 28.6	 123.9	 -66.7	 1.0	 100.0	 1	 200.0	 100.0	 0.0	 0.0	 0.0	 0.0	 0.0	 0.0	 0.0	 0.0	 0.0	 0.0	 200.0	0.5173	0.5177; % NG
	27828	 147.5	 28.6	 123.9	 -66.7	 1.0	 100.0	 1	 200.0	 95.0	 0.0	 0.0	 0.0	 0.0	 0.0	 0.0	 0.0	 0.0	 0.0	 0.0	 200.0	0.5173	0.5177; % NG
	27828	 62.25	 10.7	 46.2	 -24.8	 1.0	 100.0	 1	 74.5	 50.0	 0.0	 0.0	 0.0	 0.0	 0.0	 0.0	 0.0	 0.0	 0.0	 0.0	 74.5	0.5173	0.5177; % NG
	27829	 149.7	 28.55	 123.6	 -66.5	 1.0	 100.0	 1	 199.4	 100.0	 0.0	 0.0	 0.0	 0.0	 0.0	 0.0	 0.0	 0.0	 0.0	 0.0	 199.4	0.5173	0.5177; % NG
	27829	 149.7	 28.55	 123.6	 -66.5	 1.0	 100.0	 1	 199.4	 100.0	 0.0	 0.0	 0.0	 0.0	 0.0	 0.0	 0.0	 0.0	 0.0	 0.0	 199.4	0.5173	0.5177; % NG
	27830	 139.5	 28.5	 123.3	 -66.3	 1.0	 100.0	 1	 199.0	 80.0	 0.0	 0.0	 0.0	 0.0	 0.0	 0.0	 0.0	 0.0	 0.0	 0.0	 199.0	0.5173	0.5177; % NG
	27830	 139.5	 28.5	 123.3	 -66.3	 1.0	 100.0	 1	 199.0	 80.0	 0.0	 0.0	 0.0	 0.0	 0.0	 0.0	 0.0	 0.0	 0.0	 0.0	 199.0	0.5173	0.5177; % NG
	27830	 117.0	 27.05	 117.1	 -63.0	 1.0	 100.0	 1	 189.0	 45.0	 0.0	 0.0	 0.0	 0.0	 0.0	 0.0	 0.0	 0.0	 0.0	 0.0	 189.0	0.5173	0.5177; % NG
	27831	 36.0	 8.6	 37.2	 -20.0	 1.0	 100.0	 1	 60.0	 12.0	 0.0	 0.0	 0.0	 0.0	 0.0	 0.0	 0.0	 0.0	 0.0	 0.0	 60.0	0.5173	0.5177; % NG
	27831	 36.0	 8.6	 37.2	 -20.0	 1.0	 100.0	 1	 60.0	 12.0	 0.0	 0.0	 0.0	 0.0	 0.0	 0.0	 0.0	 0.0	 0.0	 0.0	 60.0	0.5173	0.5177; % NG
	27831	 15.0	 3.85	 16.7	 -9.0	 1.0	 100.0	 1	 27.0	 3.0	 0.0	 0.0	 0.0	 0.0	 0.0	 0.0	 0.0	 0.0	 0.0	 0.0	 27.0	0.7001	0.7018; % PEL
	27831	 52.5	 10.75	 46.5	 -25.0	 1.0	 100.0	 1	 75.0	 30.0	 0.0	 0.0	 0.0	 0.0	 0.0	 0.0	 0.0	 0.0	 0.0	 0.0	 75.0	0.7001	0.7018; % PEL
	27831	 189.6	 37.1	 160.6	 -86.4	 1.0	 100.0	 1	 259.2	 120.0	 0.0	 0.0	 0.0	 0.0	 0.0	 0.0	 0.0	 0.0	 0.0	 0.0	 259.2	0.8204	0.8230; % COW
	27831	 134.45	 28.5	 123.3	 -66.3	 1.0	 100.0	 1	 198.9	 70.0	 0.0	 0.0	 0.0	 0.0	 0.0	 0.0	 0.0	 0.0	 0.0	 0.0	 198.9	0.5173	0.5177; % NG
	27832	 150.4	 28.45	 123.2	 -66.3	 1.0	 100.0	 1	 198.8	 102.0	 0.0	 0.0	 0.0	 0.0	 0.0	 0.0	 0.0	 0.0	 0.0	 0.0	 198.8	0.5173	0.5177; % NG
	27832	 150.45	 28.5	 123.3	 -66.3	 1.0	 100.0	 1	 198.9	 102.0	 0.0	 0.0	 0.0	 0.0	 0.0	 0.0	 0.0	 0.0	 0.0	 0.0	 198.9	0.8204	0.8230; % COW
	27832	 150.45	 28.5	 123.3	 -66.3	 1.0	 100.0	 1	 198.9	 102.0	 0.0	 0.0	 0.0	 0.0	 0.0	 0.0	 0.0	 0.0	 0.0	 0.0	 198.9	0.5173	0.5177; % NG
	27832	 150.45	 28.5	 123.3	 -66.3	 1.0	 100.0	 1	 198.9	 102.0	 0.0	 0.0	 0.0	 0.0	 0.0	 0.0	 0.0	 0.0	 0.0	 0.0	 198.9	0.8204	0.8230; % COW
	27832	 150.45	 28.5	 123.3	 -66.3	 1.0	 100.0	 1	 198.9	 102.0	 0.0	 0.0	 0.0	 0.0	 0.0	 0.0	 0.0	 0.0	 0.0	 0.0	 198.9	0.8204	0.8230; % COW
	27833	 163.1	 27.95	 121.0	 -65.1	 1.0	 100.0	 1	 195.2	 131.0	 0.0	 0.0	 0.0	 0.0	 0.0	 0.0	 0.0	 0.0	 0.0	 0.0	 195.2	0.5173	0.5177; % NG
	27833	 76.95	 11.9	 51.4	 -27.6	 1.0	 100.0	 1	 82.9	 71.0	 0.0	 0.0	 0.0	 0.0	 0.0	 0.0	 0.0	 0.0	 0.0	 0.0	 82.9	0.5173	0.5177; % NG
	27834	 132.4	 13.25	 85.1	 -58.6	 1.0	 100.0	 1	 175.8	 89.0	 0.0	 0.0	 0.0	 0.0	 0.0	 0.0	 0.0	 0.0	 0.0	 0.0	 175.8	0.5173	0.5177; % NG
	27834	 132.4	 13.25	 85.1	 -58.6	 1.0	 100.0	 1	 175.8	 89.0	 0.0	 0.0	 0.0	 0.0	 0.0	 0.0	 0.0	 0.0	 0.0	 0.0	 175.8	0.5173	0.5177; % NG
	27834	 140.95	 25.1	 114.5	 -64.3	 1.0	 100.0	 1	 192.9	 89.0	 0.0	 0.0	 0.0	 0.0	 0.0	 0.0	 0.0	 0.0	 0.0	 0.0	 192.9	0.5173	0.5177; % NG
	27834	 132.4	 25.2	 109.0	 -58.6	 1.0	 100.0	 1	 175.8	 89.0	 0.0	 0.0	 0.0	 0.0	 0.0	 0.0	 0.0	 0.0	 0.0	 0.0	 175.8	0.5173	0.5177; % NG
	27834	 132.4	 25.2	 109.0	 -58.6	 1.0	 100.0	 1	 175.8	 89.0	 0.0	 0.0	 0.0	 0.0	 0.0	 0.0	 0.0	 0.0	 0.0	 0.0	 175.8	0.5173	0.5177; % NG
	27834	 83.2	 19.1	 82.7	 -44.5	 1.0	 100.0	 1	 133.4	 33.0	 0.0	 0.0	 0.0	 0.0	 0.0	 0.0	 0.0	 0.0	 0.0	 0.0	 133.4	0.5173	0.5177; % NG
	27835	 160.0	 37.2	 161.1	 -86.7	 1.0	 100.0	 1	 260.0	 60.0	 0.0	 0.0	 0.0	 0.0	 0.0	 0.0	 0.0	 0.0	 0.0	 0.0	 260.0	0.5173	0.5177; % NG
	27835	 146.05	 27.55	 119.1	 -64.0	 1.0	 100.0	 1	 192.1	 100.0	 0.0	 0.0	 0.0	 0.0	 0.0	 0.0	 0.0	 0.0	 0.0	 0.0	 192.1	0.5173	0.5177; % NG
	27835	 146.05	 27.55	 119.1	 -64.0	 1.0	 100.0	 1	 192.1	 100.0	 0.0	 0.0	 0.0	 0.0	 0.0	 0.0	 0.0	 0.0	 0.0	 0.0	 192.1	0.5173	0.5177; % NG
	27836	 41.95	 10.0	 43.3	 -23.3	 1.0	 100.0	 1	 69.9	 14.0	 0.0	 0.0	 0.0	 0.0	 0.0	 0.0	 0.0	 0.0	 0.0	 0.0	 69.9	0.7001	0.7018; % PEL
	27836	 133.95	 14.35	 92.0	 -63.3	 1.0	 100.0	 1	 189.9	 78.0	 0.0	 0.0	 0.0	 0.0	 0.0	 0.0	 0.0	 0.0	 0.0	 0.0	 189.9	0.5173	0.5177; % NG
	27836	 133.95	 14.35	 92.0	 -63.3	 1.0	 100.0	 1	 189.9	 78.0	 0.0	 0.0	 0.0	 0.0	 0.0	 0.0	 0.0	 0.0	 0.0	 0.0	 189.9	0.5173	0.5177; % NG
	27836	 133.95	 14.35	 92.0	 -63.3	 1.0	 100.0	 1	 189.9	 78.0	 0.0	 0.0	 0.0	 0.0	 0.0	 0.0	 0.0	 0.0	 0.0	 0.0	 189.9	0.5173	0.5177; % NG
	27836	 143.2	 34.3	 148.4	 -79.8	 1.0	 100.0	 1	 239.4	 47.0	 0.0	 0.0	 0.0	 0.0	 0.0	 0.0	 0.0	 0.0	 0.0	 0.0	 239.4	0.5173	0.5177; % NG
	27836	 41.95	 10.0	 43.3	 -23.3	 1.0	 100.0	 1	 69.9	 14.0	 0.0	 0.0	 0.0	 0.0	 0.0	 0.0	 0.0	 0.0	 0.0	 0.0	 69.9	0.7001	0.7018; % PEL
	27836	 41.95	 10.0	 43.3	 -23.3	 1.0	 100.0	 1	 69.9	 14.0	 0.0	 0.0	 0.0	 0.0	 0.0	 0.0	 0.0	 0.0	 0.0	 0.0	 69.9	0.7001	0.7018; % PEL
	27836	 41.95	 10.0	 43.3	 -23.3	 1.0	 100.0	 1	 69.9	 14.0	 0.0	 0.0	 0.0	 0.0	 0.0	 0.0	 0.0	 0.0	 0.0	 0.0	 69.9	0.5173	0.5177; % NG
	27836	 248.85	 33.65	 215.9	 -148.6	 1.0	 100.0	 1	 445.7	 52.0	 0.0	 0.0	 0.0	 0.0	 0.0	 0.0	 0.0	 0.0	 0.0	 0.0	 445.7	0.8204	0.8230; % COW
	27836	 133.95	 14.35	 92.0	 -63.3	 1.0	 100.0	 1	 189.9	 78.0	 0.0	 0.0	 0.0	 0.0	 0.0	 0.0	 0.0	 0.0	 0.0	 0.0	 189.9	0.5173	0.5177; % NG
	27836	 133.95	 14.35	 92.0	 -63.3	 1.0	 100.0	 1	 189.9	 78.0	 0.0	 0.0	 0.0	 0.0	 0.0	 0.0	 0.0	 0.0	 0.0	 0.0	 189.9	0.8204	0.8230; % COW
	27836	 133.95	 14.35	 92.0	 -63.3	 1.0	 100.0	 1	 189.9	 78.0	 0.0	 0.0	 0.0	 0.0	 0.0	 0.0	 0.0	 0.0	 0.0	 0.0	 189.9	0.8204	0.8230; % COW
	27836	 133.95	 14.35	 92.0	 -63.3	 1.0	 100.0	 1	 189.9	 78.0	 0.0	 0.0	 0.0	 0.0	 0.0	 0.0	 0.0	 0.0	 0.0	 0.0	 189.9	0.5173	0.5177; % NG
	27837	 104.83	 22.35	 96.8	 -52.1	 1.0	 100.0	 1	 156.2	 53.46	 0.0	 0.0	 0.0	 0.0	 0.0	 0.0	 0.0	 0.0	 0.0	 0.0	 156.2	0.8204	0.8230; % COW
	27837	 33.5	 4.65	 30.0	 -20.7	 1.0	 100.0	 1	 62.0	 5.0	 0.0	 0.0	 0.0	 0.0	 0.0	 0.0	 0.0	 0.0	 0.0	 0.0	 62.0	0.5173	0.5177; % NG
	27837	 33.5	 4.65	 30.0	 -20.7	 1.0	 100.0	 1	 62.0	 5.0	 0.0	 0.0	 0.0	 0.0	 0.0	 0.0	 0.0	 0.0	 0.0	 0.0	 62.0	0.5173	0.5177; % NG
	27837	 33.5	 4.65	 30.0	 -20.7	 1.0	 100.0	 1	 62.0	 5.0	 0.0	 0.0	 0.0	 0.0	 0.0	 0.0	 0.0	 0.0	 0.0	 0.0	 62.0	0.5173	0.5177; % NG
	27837	 33.5	 4.65	 30.0	 -20.7	 1.0	 100.0	 1	 62.0	 5.0	 0.0	 0.0	 0.0	 0.0	 0.0	 0.0	 0.0	 0.0	 0.0	 0.0	 62.0	0.5173	0.5177; % NG
	27837	 170.0	 25.95	 112.2	 -60.3	 1.0	 100.0	 1	 181.0	 159.0	 0.0	 0.0	 0.0	 0.0	 0.0	 0.0	 0.0	 0.0	 0.0	 0.0	 181.0	0.8204	0.8230; % COW
	27837	 100.0	 25.95	 112.2	 -60.3	 1.0	 100.0	 1	 181.0	 19.0	 0.0	 0.0	 0.0	 0.0	 0.0	 0.0	 0.0	 0.0	 0.0	 0.0	 181.0	0.8204	0.8230; % COW
	27837	 296.55	 62.45	 270.3	 -145.4	 1.0	 100.0	 1	 436.1	 157.0	 0.0	 0.0	 0.0	 0.0	 0.0	 0.0	 0.0	 0.0	 0.0	 0.0	 436.1	0.8204	0.8230; % COW
	27837	 139.1	 26.95	 116.6	 -62.7	 1.0	 100.0	 1	 188.2	 90.0	 0.0	 0.0	 0.0	 0.0	 0.0	 0.0	 0.0	 0.0	 0.0	 0.0	 188.2	0.5173	0.5177; % NG
	27837	 139.1	 26.95	 116.6	 -62.7	 1.0	 100.0	 1	 188.2	 90.0	 0.0	 0.0	 0.0	 0.0	 0.0	 0.0	 0.0	 0.0	 0.0	 0.0	 188.2	0.5173	0.5177; % NG
	27837	 139.1	 26.95	 116.6	 -62.7	 1.0	 100.0	 1	 188.2	 90.0	 0.0	 0.0	 0.0	 0.0	 0.0	 0.0	 0.0	 0.0	 0.0	 0.0	 188.2	0.5173	0.5177; % NG
	27837	 33.5	 4.65	 30.0	 -20.7	 1.0	 100.0	 1	 62.0	 5.0	 0.0	 0.0	 0.0	 0.0	 0.0	 0.0	 0.0	 0.0	 0.0	 0.0	 62.0	0.5173	0.5177; % NG
	27837	 139.1	 26.95	 116.6	 -62.7	 1.0	 100.0	 1	 188.2	 90.0	 0.0	 0.0	 0.0	 0.0	 0.0	 0.0	 0.0	 0.0	 0.0	 0.0	 188.2	0.5173	0.5177; % NG
	27837	 139.1	 26.95	 116.6	 -62.7	 1.0	 100.0	 1	 188.2	 90.0	 0.0	 0.0	 0.0	 0.0	 0.0	 0.0	 0.0	 0.0	 0.0	 0.0	 188.2	0.5173	0.5177; % NG
	27837	 139.1	 26.95	 116.6	 -62.7	 1.0	 100.0	 1	 188.2	 90.0	 0.0	 0.0	 0.0	 0.0	 0.0	 0.0	 0.0	 0.0	 0.0	 0.0	 188.2	0.8204	0.8230; % COW
	27837	 33.5	 4.65	 30.0	 -20.7	 1.0	 100.0	 1	 62.0	 5.0	 0.0	 0.0	 0.0	 0.0	 0.0	 0.0	 0.0	 0.0	 0.0	 0.0	 62.0	0.5173	0.5177; % NG
	27837	 33.5	 4.65	 30.0	 -20.7	 1.0	 100.0	 1	 62.0	 5.0	 0.0	 0.0	 0.0	 0.0	 0.0	 0.0	 0.0	 0.0	 0.0	 0.0	 62.0	0.5173	0.5177; % NG
	27837	 33.5	 4.65	 30.0	 -20.7	 1.0	 100.0	 1	 62.0	 5.0	 0.0	 0.0	 0.0	 0.0	 0.0	 0.0	 0.0	 0.0	 0.0	 0.0	 62.0	0.5173	0.5177; % NG
	27837	 33.5	 4.65	 30.0	 -20.7	 1.0	 100.0	 1	 62.0	 5.0	 0.0	 0.0	 0.0	 0.0	 0.0	 0.0	 0.0	 0.0	 0.0	 0.0	 62.0	0.5173	0.5177; % NG
	27837	 33.5	 4.65	 30.0	 -20.7	 1.0	 100.0	 1	 62.0	 5.0	 0.0	 0.0	 0.0	 0.0	 0.0	 0.0	 0.0	 0.0	 0.0	 0.0	 62.0	0.5173	0.5177; % NG
	27837	 33.5	 4.65	 30.0	 -20.7	 1.0	 100.0	 1	 62.0	 5.0	 0.0	 0.0	 0.0	 0.0	 0.0	 0.0	 0.0	 0.0	 0.0	 0.0	 62.0	0.5173	0.5177; % NG
	27837	 33.5	 4.65	 30.0	 -20.7	 1.0	 100.0	 1	 62.0	 5.0	 0.0	 0.0	 0.0	 0.0	 0.0	 0.0	 0.0	 0.0	 0.0	 0.0	 62.0	0.5173	0.5177; % NG
	27838	 365.55	 39.0	 223.4	 -145.4	 1.0	 100.0	 1	 436.1	 295.0	 0.0	 0.0	 0.0	 0.0	 0.0	 0.0	 0.0	 0.0	 0.0	 0.0	 436.1	0.5173	0.5177; % NG
	27838	 136.445	 26.95	 116.6	 -62.7	 1.0	 100.0	 1	 188.2	 84.69	 0.0	 0.0	 0.0	 0.0	 0.0	 0.0	 0.0	 0.0	 0.0	 0.0	 188.2	0.5173	0.5177; % NG
	27838	 106.215	 22.35	 96.8	 -52.1	 1.0	 100.0	 1	 156.2	 56.23	 0.0	 0.0	 0.0	 0.0	 0.0	 0.0	 0.0	 0.0	 0.0	 0.0	 156.2	0.5173	0.5177; % NG
	27838	 365.55	 39.0	 223.4	 -145.4	 1.0	 100.0	 1	 436.1	 295.0	 0.0	 0.0	 0.0	 0.0	 0.0	 0.0	 0.0	 0.0	 0.0	 0.0	 436.1	0.8204	0.8230; % COW
	27838	 136.445	 26.95	 116.6	 -62.7	 1.0	 100.0	 1	 188.2	 84.69	 0.0	 0.0	 0.0	 0.0	 0.0	 0.0	 0.0	 0.0	 0.0	 0.0	 188.2	0.5173	0.5177; % NG
	27838	 136.445	 26.95	 116.6	 -62.7	 1.0	 100.0	 1	 188.2	 84.69	 0.0	 0.0	 0.0	 0.0	 0.0	 0.0	 0.0	 0.0	 0.0	 0.0	 188.2	0.5173	0.5177; % NG
	27838	 136.445	 26.95	 116.6	 -62.7	 1.0	 100.0	 1	 188.2	 84.69	 0.0	 0.0	 0.0	 0.0	 0.0	 0.0	 0.0	 0.0	 0.0	 0.0	 188.2	0.5173	0.5177; % NG
	27838	 136.445	 26.95	 116.6	 -62.7	 1.0	 100.0	 1	 188.2	 84.69	 0.0	 0.0	 0.0	 0.0	 0.0	 0.0	 0.0	 0.0	 0.0	 0.0	 188.2	0.5173	0.5177; % NG
	27838	 136.445	 26.95	 116.6	 -62.7	 1.0	 100.0	 1	 188.2	 84.69	 0.0	 0.0	 0.0	 0.0	 0.0	 0.0	 0.0	 0.0	 0.0	 0.0	 188.2	0.5173	0.5177; % NG
	27838	 136.445	 26.95	 116.6	 -62.7	 1.0	 100.0	 1	 188.2	 84.69	 0.0	 0.0	 0.0	 0.0	 0.0	 0.0	 0.0	 0.0	 0.0	 0.0	 188.2	0.5173	0.5177; % NG
	27838	 136.445	 26.95	 116.6	 -62.7	 1.0	 100.0	 1	 188.2	 84.69	 0.0	 0.0	 0.0	 0.0	 0.0	 0.0	 0.0	 0.0	 0.0	 0.0	 188.2	0.8204	0.8230; % COW
	27839	 526.65	 77.25	 442.3	 -287.8	 1.0	 100.0	 1	 863.3	 190.0	 0.0	 0.0	 0.0	 0.0	 0.0	 0.0	 0.0	 0.0	 0.0	 0.0	 863.3	0.8204	0.8230; % COW
	27839	 526.65	 77.25	 442.3	 -287.8	 1.0	 100.0	 1	 863.3	 190.0	 0.0	 0.0	 0.0	 0.0	 0.0	 0.0	 0.0	 0.0	 0.0	 0.0	 863.3	0.8204	0.8230; % COW
	27839	 390.9	 67.55	 292.4	 -157.3	 1.0	 100.0	 1	 471.8	 310.0	 0.0	 0.0	 0.0	 0.0	 0.0	 0.0	 0.0	 0.0	 0.0	 0.0	 471.8	0.5173	0.5177; % NG
	27839	 136.445	 26.95	 116.6	 -62.7	 1.0	 100.0	 1	 188.2	 84.69	 0.0	 0.0	 0.0	 0.0	 0.0	 0.0	 0.0	 0.0	 0.0	 0.0	 188.2	0.5173	0.5177; % NG
	27839	 136.445	 26.95	 116.6	 -62.7	 1.0	 100.0	 1	 188.2	 84.69	 0.0	 0.0	 0.0	 0.0	 0.0	 0.0	 0.0	 0.0	 0.0	 0.0	 188.2	0.5173	0.5177; % NG
	27839	 136.445	 26.95	 116.6	 -62.7	 1.0	 100.0	 1	 188.2	 84.69	 0.0	 0.0	 0.0	 0.0	 0.0	 0.0	 0.0	 0.0	 0.0	 0.0	 188.2	0.8204	0.8230; % COW
	27839	 136.445	 26.95	 116.6	 -62.7	 1.0	 100.0	 1	 188.2	 84.69	 0.0	 0.0	 0.0	 0.0	 0.0	 0.0	 0.0	 0.0	 0.0	 0.0	 188.2	0.8204	0.8230; % COW
	27840	 562.25	 83.65	 478.8	 -311.5	 1.0	 100.0	 1	 934.5	 190.0	 0.0	 0.0	 0.0	 0.0	 0.0	 0.0	 0.0	 0.0	 0.0	 0.0	 934.5	0.0000	0.0000; % NUC
	27840	 173.5	 42.5	 153.0	 -68.0	 1.0	 100.0	 1	 204.0	 143.0	 0.0	 0.0	 0.0	 0.0	 0.0	 0.0	 0.0	 0.0	 0.0	 0.0	 204.0	0.5173	0.5177; % NG
	27840	 173.5	 42.5	 153.0	 -68.0	 1.0	 100.0	 1	 204.0	 143.0	 0.0	 0.0	 0.0	 0.0	 0.0	 0.0	 0.0	 0.0	 0.0	 0.0	 204.0	0.5173	0.5177; % NG
	27840	 173.5	 42.5	 153.0	 -68.0	 1.0	 100.0	 1	 204.0	 143.0	 0.0	 0.0	 0.0	 0.0	 0.0	 0.0	 0.0	 0.0	 0.0	 0.0	 204.0	0.5173	0.5177; % NG
	27840	 173.5	 42.5	 153.0	 -68.0	 1.0	 100.0	 1	 204.0	 143.0	 0.0	 0.0	 0.0	 0.0	 0.0	 0.0	 0.0	 0.0	 0.0	 0.0	 204.0	0.5173	0.5177; % NG
	27840	 562.25	 83.65	 478.8	 -311.5	 1.0	 100.0	 1	 934.5	 190.0	 0.0	 0.0	 0.0	 0.0	 0.0	 0.0	 0.0	 0.0	 0.0	 0.0	 934.5	0.8204	0.8230; % COW
	27840	 395.85	 67.55	 292.3	 -157.2	 1.0	 100.0	 1	 471.7	 320.0	 0.0	 0.0	 0.0	 0.0	 0.0	 0.0	 0.0	 0.0	 0.0	 0.0	 471.7	0.8204	0.8230; % COW
	27840	 136.445	 26.95	 116.6	 -62.7	 1.0	 100.0	 1	 188.2	 84.69	 0.0	 0.0	 0.0	 0.0	 0.0	 0.0	 0.0	 0.0	 0.0	 0.0	 188.2	0.5173	0.5177; % NG
	27840	 136.445	 26.95	 116.6	 -62.7	 1.0	 100.0	 1	 188.2	 84.69	 0.0	 0.0	 0.0	 0.0	 0.0	 0.0	 0.0	 0.0	 0.0	 0.0	 188.2	0.5173	0.5177; % NG
	27840	 136.445	 26.95	 116.6	 -62.7	 1.0	 100.0	 1	 188.2	 84.69	 0.0	 0.0	 0.0	 0.0	 0.0	 0.0	 0.0	 0.0	 0.0	 0.0	 188.2	0.5173	0.5177; % NG
	27840	 136.445	 26.95	 116.6	 -62.7	 1.0	 100.0	 1	 188.2	 84.69	 0.0	 0.0	 0.0	 0.0	 0.0	 0.0	 0.0	 0.0	 0.0	 0.0	 188.2	0.5173	0.5177; % NG
	27840	 173.5	 42.5	 153.0	 -68.0	 1.0	 100.0	 1	 204.0	 143.0	 0.0	 0.0	 0.0	 0.0	 0.0	 0.0	 0.0	 0.0	 0.0	 0.0	 204.0	0.5173	0.5177; % NG
	27840	 173.5	 42.5	 153.0	 -68.0	 1.0	 100.0	 1	 204.0	 143.0	 0.0	 0.0	 0.0	 0.0	 0.0	 0.0	 0.0	 0.0	 0.0	 0.0	 204.0	0.5173	0.5177; % NG
	27841	 592.0	 57.4	 368.1	 -253.3	 1.0	 100.0	 1	 760.0	 424.0	 0.0	 0.0	 0.0	 0.0	 0.0	 0.0	 0.0	 0.0	 0.0	 0.0	 0.0	0.0000	0.0000; % NUC
	27841	 648.6	 66.2	 424.8	 -292.4	 1.0	 100.0	 1	 877.2	 420.0	 0.0	 0.0	 0.0	 0.0	 0.0	 0.0	 0.0	 0.0	 0.0	 0.0	 0.0	0.8204	0.8230; % COW
	27841	 391.0	 67.6	 292.5	 -157.3	 1.0	 100.0	 1	 472.0	 310.0	 0.0	 0.0	 0.0	 0.0	 0.0	 0.0	 0.0	 0.0	 0.0	 0.0	 472.0	0.5173	0.5177; % NG
	27841	 246.0	 57.55	 249.1	 -134.0	 1.0	 100.0	 1	 402.0	 90.0	 0.0	 0.0	 0.0	 0.0	 0.0	 0.0	 0.0	 0.0	 0.0	 0.0	 402.0	0.5173	0.5177; % NG
	27841	 246.0	 57.55	 249.1	 -134.0	 1.0	 100.0	 1	 402.0	 90.0	 0.0	 0.0	 0.0	 0.0	 0.0	 0.0	 0.0	 0.0	 0.0	 0.0	 402.0	0.5173	0.5177; % NG
	27841	 136.3	 26.9	 116.5	 -62.7	 1.0	 100.0	 1	 188.0	 84.6	 0.0	 0.0	 0.0	 0.0	 0.0	 0.0	 0.0	 0.0	 0.0	 0.0	 188.0	0.5173	0.5177; % NG
	27841	 136.3	 26.9	 116.5	 -62.7	 1.0	 100.0	 1	 188.0	 84.6	 0.0	 0.0	 0.0	 0.0	 0.0	 0.0	 0.0	 0.0	 0.0	 0.0	 188.0	0.5173	0.5177; % NG
	27841	 136.3	 26.9	 116.5	 -62.7	 1.0	 100.0	 1	 188.0	 84.6	 0.0	 0.0	 0.0	 0.0	 0.0	 0.0	 0.0	 0.0	 0.0	 0.0	 188.0	0.5173	0.5177; % NG
	27841	 136.3	 26.9	 116.5	 -62.7	 1.0	 100.0	 1	 188.0	 84.6	 0.0	 0.0	 0.0	 0.0	 0.0	 0.0	 0.0	 0.0	 0.0	 0.0	 188.0	0.5173	0.5177; % NG
	27842	 19.6	 4.9	 21.2	 -11.4	 1.0	 100.0	 1	 34.2	 5.0	 0.0	 0.0	 0.0	 0.0	 0.0	 0.0	 0.0	 0.0	 0.0	 0.0	 34.2	0.5173	0.5177; % NG
	27842	 19.6	 4.9	 21.2	 -11.4	 1.0	 100.0	 1	 34.2	 5.0	 0.0	 0.0	 0.0	 0.0	 0.0	 0.0	 0.0	 0.0	 0.0	 0.0	 34.2	0.8204	0.8230; % COW
	27842	 19.6	 4.9	 21.2	 -11.4	 1.0	 100.0	 1	 34.2	 5.0	 0.0	 0.0	 0.0	 0.0	 0.0	 0.0	 0.0	 0.0	 0.0	 0.0	 34.2	0.5173	0.5177; % NG
	27842	 19.6	 4.9	 21.2	 -11.4	 1.0	 100.0	 1	 34.2	 5.0	 0.0	 0.0	 0.0	 0.0	 0.0	 0.0	 0.0	 0.0	 0.0	 0.0	 34.2	0.7001	0.7018; % PEL
	27842	 19.6	 4.9	 21.2	 -11.4	 1.0	 100.0	 1	 34.2	 5.0	 0.0	 0.0	 0.0	 0.0	 0.0	 0.0	 0.0	 0.0	 0.0	 0.0	 34.2	0.7001	0.7018; % PEL
	27842	 19.6	 4.9	 21.2	 -11.4	 1.0	 100.0	 1	 34.2	 5.0	 0.0	 0.0	 0.0	 0.0	 0.0	 0.0	 0.0	 0.0	 0.0	 0.0	 34.2	0.5173	0.5177; % NG
	27842	 19.6	 4.9	 21.2	 -11.4	 1.0	 100.0	 1	 34.2	 5.0	 0.0	 0.0	 0.0	 0.0	 0.0	 0.0	 0.0	 0.0	 0.0	 0.0	 34.2	0.8204	0.8230; % COW
	27842	 19.6	 4.9	 21.2	 -11.4	 1.0	 100.0	 1	 34.2	 5.0	 0.0	 0.0	 0.0	 0.0	 0.0	 0.0	 0.0	 0.0	 0.0	 0.0	 34.2	0.5173	0.5177; % NG
	27842	 19.6	 4.9	 21.2	 -11.4	 1.0	 100.0	 1	 34.2	 5.0	 0.0	 0.0	 0.0	 0.0	 0.0	 0.0	 0.0	 0.0	 0.0	 0.0	 34.2	0.7001	0.7018; % PEL
	27842	 19.6	 4.9	 21.2	 -11.4	 1.0	 100.0	 1	 34.2	 5.0	 0.0	 0.0	 0.0	 0.0	 0.0	 0.0	 0.0	 0.0	 0.0	 0.0	 34.2	0.5173	0.5177; % NG
	27842	 19.6	 4.9	 21.2	 -11.4	 1.0	 100.0	 1	 34.2	 5.0	 0.0	 0.0	 0.0	 0.0	 0.0	 0.0	 0.0	 0.0	 0.0	 0.0	 34.2	0.5173	0.5177; % NG
	27842	 19.6	 4.9	 21.2	 -11.4	 1.0	 100.0	 1	 34.2	 5.0	 0.0	 0.0	 0.0	 0.0	 0.0	 0.0	 0.0	 0.0	 0.0	 0.0	 34.2	0.5173	0.5177; % NG
	27842	 19.6	 4.9	 21.2	 -11.4	 1.0	 100.0	 1	 34.2	 5.0	 0.0	 0.0	 0.0	 0.0	 0.0	 0.0	 0.0	 0.0	 0.0	 0.0	 34.2	0.7001	0.7018; % PEL
	27842	 19.6	 4.9	 21.2	 -11.4	 1.0	 100.0	 1	 34.2	 5.0	 0.0	 0.0	 0.0	 0.0	 0.0	 0.0	 0.0	 0.0	 0.0	 0.0	 34.2	0.5173	0.5177; % NG
	27842	 19.6	 4.9	 21.2	 -11.4	 1.0	 100.0	 1	 34.2	 5.0	 0.0	 0.0	 0.0	 0.0	 0.0	 0.0	 0.0	 0.0	 0.0	 0.0	 34.2	0.5173	0.5177; % NG
	27842	 19.6	 4.9	 21.2	 -11.4	 1.0	 100.0	 1	 34.2	 5.0	 0.0	 0.0	 0.0	 0.0	 0.0	 0.0	 0.0	 0.0	 0.0	 0.0	 34.2	0.8204	0.8230; % COW
	27842	 19.6	 7.15	 25.7	 -11.4	 1.0	 100.0	 1	 34.2	 5.0	 0.0	 0.0	 0.0	 0.0	 0.0	 0.0	 0.0	 0.0	 0.0	 0.0	 34.2	0.5173	0.5177; % NG
	27842	 99.76	 21.65	 93.7	 -50.4	 1.0	 100.0	 1	 151.2	 48.32	 0.0	 0.0	 0.0	 0.0	 0.0	 0.0	 0.0	 0.0	 0.0	 0.0	 151.2	0.5173	0.5177; % NG
	27842	 99.76	 21.65	 93.7	 -50.4	 1.0	 100.0	 1	 151.2	 48.32	 0.0	 0.0	 0.0	 0.0	 0.0	 0.0	 0.0	 0.0	 0.0	 0.0	 151.2	0.5173	0.5177; % NG
	27842	 170.0	 38.55	 138.8	 -61.7	 1.0	 100.0	 1	 185.0	 155.0	 0.0	 0.0	 0.0	 0.0	 0.0	 0.0	 0.0	 0.0	 0.0	 0.0	 185.0	0.5173	0.5177; % NG
	27842	 170.0	 38.55	 138.8	 -61.7	 1.0	 100.0	 1	 185.0	 155.0	 0.0	 0.0	 0.0	 0.0	 0.0	 0.0	 0.0	 0.0	 0.0	 0.0	 185.0	0.5173	0.5177; % NG
	27842	 170.0	 38.55	 138.8	 -61.7	 1.0	 100.0	 1	 185.0	 155.0	 0.0	 0.0	 0.0	 0.0	 0.0	 0.0	 0.0	 0.0	 0.0	 0.0	 185.0	0.5173	0.5177; % NG
	27842	 19.6	 4.9	 21.2	 -11.4	 1.0	 100.0	 1	 34.2	 5.0	 0.0	 0.0	 0.0	 0.0	 0.0	 0.0	 0.0	 0.0	 0.0	 0.0	 34.2	0.5173	0.5177; % NG
	27842	 170.0	 38.55	 138.8	 -61.7	 1.0	 100.0	 1	 185.0	 155.0	 0.0	 0.0	 0.0	 0.0	 0.0	 0.0	 0.0	 0.0	 0.0	 0.0	 185.0	0.5173	0.5177; % NG
	27842	 19.6	 4.9	 21.2	 -11.4	 1.0	 100.0	 1	 34.2	 5.0	 0.0	 0.0	 0.0	 0.0	 0.0	 0.0	 0.0	 0.0	 0.0	 0.0	 34.2	0.5173	0.5177; % NG
	27842	 19.6	 4.9	 21.2	 -11.4	 1.0	 100.0	 1	 34.2	 5.0	 0.0	 0.0	 0.0	 0.0	 0.0	 0.0	 0.0	 0.0	 0.0	 0.0	 34.2	0.5173	0.5177; % NG
	27842	 19.6	 4.9	 21.2	 -11.4	 1.0	 100.0	 1	 34.2	 5.0	 0.0	 0.0	 0.0	 0.0	 0.0	 0.0	 0.0	 0.0	 0.0	 0.0	 34.2	0.7001	0.7018; % PEL
	27842	 19.6	 4.9	 21.2	 -11.4	 1.0	 100.0	 1	 34.2	 5.0	 0.0	 0.0	 0.0	 0.0	 0.0	 0.0	 0.0	 0.0	 0.0	 0.0	 34.2	0.5173	0.5177; % NG
	27842	 19.6	 4.9	 21.2	 -11.4	 1.0	 100.0	 1	 34.2	 5.0	 0.0	 0.0	 0.0	 0.0	 0.0	 0.0	 0.0	 0.0	 0.0	 0.0	 34.2	0.7001	0.7018; % PEL
...
];

%% generator cost data
%	2	startup	shutdown	n	c(n-1)	...	c0
mpc.gencost = [
	2	 0.0	 0.0	 3	   0.000000	   6.814178	   0.000000; % NUC
	2	 0.0	 0.0	 3	   0.000000	  26.746204	   0.000000; % COW
	2	 0.0	 0.0	 3	   0.000000	  24.594915	   0.000000; % COW
	2	 0.0	 0.0	 3	   0.000000	  44.725544	   0.000000; % COW
	2	 0.0	 0.0	 3	   0.000000	  20.518258	   0.000000; % COW
	2	 0.0	 0.0	 3	   0.000000	  24.670626	   0.000000; % COW
	2	 0.0	 0.0	 3	   0.000000	  29.618977	   0.000000; % NG
	2	 0.0	 0.0	 3	   0.000000	  29.987382	   0.000000; % COW
	2	 0.0	 0.0	 3	   0.000000	  34.768684	   0.000000; % NG
	2	 0.0	 0.0	 3	   0.000000	  51.269222	   0.000000; % NG
	2	 0.0	 0.0	 3	   0.000000	  37.251628	   0.000000; % NG
	2	 0.0	 0.0	 3	   0.000000	  37.756886	   0.000000; % NG
	2	 0.0	 0.0	 3	   0.000000	  23.098355	   0.000000; % NG
	2	 0.0	 0.0	 3	   0.000000	  42.886610	   0.000000; % COW
	2	 0.0	 0.0	 3	   0.000000	  31.542684	   0.000000; % NG
	2	 0.0	 0.0	 3	   0.000000	  26.213922	   0.000000; % COW
	2	 0.0	 0.0	 3	   0.000000	  21.302441	   0.000000; % COW
	2	 0.0	 0.0	 3	   0.000000	  32.748669	   0.000000; % COW
	2	 0.0	 0.0	 3	   0.000000	  10.765826	   0.000000; % COW
	2	 0.0	 0.0	 3	   0.000000	  13.843645	   0.000000; % NG
	2	 0.0	 0.0	 3	   0.000000	  46.121807	   0.000000; % NG
	2	 0.0	 0.0	 3	   0.000000	  46.222796	   0.000000; % COW
	2	 0.0	 0.0	 3	   0.000000	  33.295524	   0.000000; % NG
	2	 0.0	 0.0	 3	   0.000000	  52.454870	   0.000000; % NG
	2	 0.0	 0.0	 3	   0.000000	  27.171972	   0.000000; % COW
	2	 0.0	 0.0	 3	   0.000000	 108.594254	   0.000000; % PEL
	2	 0.0	 0.0	 3	   0.000000	  34.479903	   0.000000; % NG
	2	 0.0	 0.0	 3	   0.000000	  34.895159	   0.000000; % NG
	2	 0.0	 0.0	 3	   0.000000	  34.219102	   0.000000; % COW
	2	 0.0	 0.0	 3	   0.000000	  37.580029	   0.000000; % NG
	2	 0.0	 0.0	 3	   0.000000	  40.216629	   0.000000; % NG
	2	 0.0	 0.0	 3	   0.000000	  38.245538	   0.000000; % COW
	2	 0.0	 0.0	 3	   0.000000	  25.589072	   0.000000; % COW
	2	 0.0	 0.0	 3	   0.000000	  47.656912	   0.000000; % NG
	2	 0.0	 0.0	 3	   0.000000	  35.979606	   0.000000; % NG
	2	 0.0	 0.0	 3	   0.000000	   7.246643	   0.000000; % COW
	2	 0.0	 0.0	 3	   0.000000	  13.714801	   0.000000; % NG
	2	 0.0	 0.0	 3	   0.000000	  48.701649	   0.000000; % NG
	2	 0.0	 0.0	 3	   0.000000	  27.514404	   0.000000; % NG
	2	 0.0	 0.0	 3	   0.000000	  46.853594	   0.000000; % NG
	2	 0.0	 0.0	 3	   0.000000	  50.567371	   0.000000; % NG
	2	 0.0	 0.0	 3	   0.000000	  20.579989	   0.000000; % NG
	2	 0.0	 0.0	 3	   0.000000	  39.081251	   0.000000; % NG
	2	 0.0	 0.0	 3	   0.000000	  45.122392	   0.000000; % NG
	2	 0.0	 0.0	 3	   0.000000	  14.978882	   0.000000; % COW
	2	 0.0	 0.0	 3	   0.000000	  22.330512	   0.000000; % COW
	2	 0.0	 0.0	 3	   0.000000	  32.010073	   0.000000; % NG
	2	 0.0	 0.0	 3	   0.000000	  22.130246	   0.000000; % NG
	2	 0.0	 0.0	 3	   0.000000	 103.703155	   0.000000; % PEL
	2	 0.0	 0.0	 3	   0.000000	  23.381490	   0.000000; % NG
	2	 0.0	 0.0	 3	   0.000000	  34.543956	   0.000000; % NG
	2	 0.0	 0.0	 3	   0.000000	  36.929607	   0.000000; % NG
	2	 0.0	 0.0	 3	   0.000000	  21.572741	   0.000000; % NG
	2	 0.0	 0.0	 3	   0.000000	  41.528958	   0.000000; % NG
	2	 0.0	 0.0	 3	   0.000000	  43.681460	   0.000000; % COW
	2	 0.0	 0.0	 3	   0.000000	  24.909197	   0.000000; % NG
	2	 0.0	 0.0	 3	   0.000000	  95.582112	   0.000000; % PEL
	2	 0.0	 0.0	 3	   0.000000	  50.032076	   0.000000; % NG
	2	 0.0	 0.0	 3	   0.000000	 113.171236	   0.000000; % PEL
	2	 0.0	 0.0	 3	   0.000000	  45.939519	   0.000000; % NG
	2	 0.0	 0.0	 3	   0.000000	  16.636312	   0.000000; % COW
	2	 0.0	 0.0	 3	   0.000000	  50.157744	   0.000000; % NG
	2	 0.0	 0.0	 3	   0.000000	  26.693804	   0.000000; % NG
	2	 0.0	 0.0	 3	   0.000000	  25.617473	   0.000000; % NG
	2	 0.0	 0.0	 3	   0.000000	  32.002160	   0.000000; % NG
	2	 0.0	 0.0	 3	   0.000000	  23.565410	   0.000000; % NG
	2	 0.0	 0.0	 3	   0.000000	  46.944787	   0.000000; % NG
	2	 0.0	 0.0	 3	   0.000000	  22.564176	   0.000000; % NG
	2	 0.0	 0.0	 3	   0.000000	  21.053498	   0.000000; % NG
	2	 0.0	 0.0	 3	   0.000000	  43.121103	   0.000000; % NG
	2	 0.0	 0.0	 3	   0.000000	  42.082359	   0.000000; % NG
	2	 0.0	 0.0	 3	   0.000000	  15.970501	   0.000000; % NG
	2	 0.0	 0.0	 3	   0.000000	  44.143046	   0.000000; % NG
	2	 0.0	 0.0	 3	   0.000000	  50.682619	   0.000000; % NG
	2	 0.0	 0.0	 3	   0.000000	  31.048324	   0.000000; % NG
	2	 0.0	 0.0	 3	   0.000000	  49.718592	   0.000000; % NG
	2	 0.0	 0.0	 3	   0.000000	 121.451704	   0.000000; % PEL
	2	 0.0	 0.0	 3	   0.000000	  95.397204	   0.000000; % PEL
	2	 0.0	 0.0	 3	   0.000000	  16.333397	   0.000000; % COW
	2	 0.0	 0.0	 3	   0.000000	  24.164534	   0.000000; % NG
	2	 0.0	 0.0	 3	   0.000000	  17.808022	   0.000000; % NG
	2	 0.0	 0.0	 3	   0.000000	  31.589770	   0.000000; % COW
	2	 0.0	 0.0	 3	   0.000000	  10.503650	   0.000000; % NG
	2	 0.0	 0.0	 3	   0.000000	  33.827583	   0.000000; % COW
	2	 0.0	 0.0	 3	   0.000000	  26.738073	   0.000000; % COW
	2	 0.0	 0.0	 3	   0.000000	  33.949798	   0.000000; % NG
	2	 0.0	 0.0	 3	   0.000000	  47.119455	   0.000000; % NG
	2	 0.0	 0.0	 3	   0.000000	  29.357781	   0.000000; % NG
	2	 0.0	 0.0	 3	   0.000000	  35.158685	   0.000000; % NG
	2	 0.0	 0.0	 3	   0.000000	  48.248104	   0.000000; % NG
	2	 0.0	 0.0	 3	   0.000000	  47.836063	   0.000000; % NG
	2	 0.0	 0.0	 3	   0.000000	  34.731951	   0.000000; % NG
	2	 0.0	 0.0	 3	   0.000000	  24.530906	   0.000000; % NG
	2	 0.0	 0.0	 3	   0.000000	  40.534354	   0.000000; % NG
	2	 0.0	 0.0	 3	   0.000000	  24.824855	   0.000000; % NG
	2	 0.0	 0.0	 3	   0.000000	  51.484262	   0.000000; % NG
	2	 0.0	 0.0	 3	   0.000000	 111.816799	   0.000000; % PEL
	2	 0.0	 0.0	 3	   0.000000	  47.726404	   0.000000; % NG
	2	 0.0	 0.0	 3	   0.000000	  32.649365	   0.000000; % NG
	2	 0.0	 0.0	 3	   0.000000	  43.689995	   0.000000; % NG
	2	 0.0	 0.0	 3	   0.000000	  32.124779	   0.000000; % NG
	2	 0.0	 0.0	 3	   0.000000	 112.150182	   0.000000; % PEL
	2	 0.0	 0.0	 3	   0.000000	 114.157329	   0.000000; % PEL
	2	 0.0	 0.0	 3	   0.000000	  30.027455	   0.000000; % NG
	2	 0.0	 0.0	 3	   0.000000	  39.471671	   0.000000; % COW
	2	 0.0	 0.0	 3	   0.000000	  11.172715	   0.000000; % NG
	2	 0.0	 0.0	 3	   0.000000	  22.852459	   0.000000; % COW
	2	 0.0	 0.0	 3	   0.000000	  36.557844	   0.000000; % COW
	2	 0.0	 0.0	 3	   0.000000	  48.606547	   0.000000; % NG
	2	 0.0	 0.0	 3	   0.000000	  30.695663	   0.000000; % COW
	2	 0.0	 0.0	 3	   0.000000	  20.645632	   0.000000; % NG
	2	 0.0	 0.0	 3	   0.000000	  30.729861	   0.000000; % NG
	2	 0.0	 0.0	 3	   0.000000	  43.422072	   0.000000; % NG
	2	 0.0	 0.0	 3	   0.000000	  20.643519	   0.000000; % NG
	2	 0.0	 0.0	 3	   0.000000	  29.063131	   0.000000; % COW
	2	 0.0	 0.0	 3	   0.000000	  22.739710	   0.000000; % COW
	2	 0.0	 0.0	 3	   0.000000	  10.023987	   0.000000; % COW
	2	 0.0	 0.0	 3	   0.000000	  31.071000	   0.000000; % NG
	2	 0.0	 0.0	 3	   0.000000	  50.783427	   0.000000; % NG
	2	 0.0	 0.0	 3	   0.000000	  46.865887	   0.000000; % NG
	2	 0.0	 0.0	 3	   0.000000	  42.308665	   0.000000; % NG
	2	 0.0	 0.0	 3	   0.000000	  40.777905	   0.000000; % NG
	2	 0.0	 0.0	 3	   0.000000	  11.293081	   0.000000; % NG
	2	 0.0	 0.0	 3	   0.000000	  27.724689	   0.000000; % COW
	2	 0.0	 0.0	 3	   0.000000	  38.705780	   0.000000; % NG
	2	 0.0	 0.0	 3	   0.000000	  48.862662	   0.000000; % NG
	2	 0.0	 0.0	 3	   0.000000	  48.076819	   0.000000; % NG
	2	 0.0	 0.0	 3	   0.000000	  40.723414	   0.000000; % NG
	2	 0.0	 0.0	 3	   0.000000	  38.820926	   0.000000; % NG
	2	 0.0	 0.0	 3	   0.000000	  43.439614	   0.000000; % NG
	2	 0.0	 0.0	 3	   0.000000	  53.995983	   0.000000; % NG
	2	 0.0	 0.0	 3	   0.000000	  27.423133	   0.000000; % NG
	2	 0.0	 0.0	 3	   0.000000	  43.999202	   0.000000; % NG
	2	 0.0	 0.0	 3	   0.000000	  37.265750	   0.000000; % NG
	2	 0.0	 0.0	 3	   0.000000	  31.833016	   0.000000; % COW
	2	 0.0	 0.0	 3	   0.000000	  32.264970	   0.000000; % NG
	2	 0.0	 0.0	 3	   0.000000	  25.413004	   0.000000; % NG
	2	 0.0	 0.0	 3	   0.000000	  32.432750	   0.000000; % NG
	2	 0.0	 0.0	 3	   0.000000	  34.716257	   0.000000; % NG
	2	 0.0	 0.0	 3	   0.000000	  29.398002	   0.000000; % NG
	2	 0.0	 0.0	 3	   0.000000	  30.475415	   0.000000; % NG
	2	 0.0	 0.0	 3	   0.000000	  30.387431	   0.000000; % COW
	2	 0.0	 0.0	 3	   0.000000	  34.395513	   0.000000; % COW
	2	 0.0	 0.0	 3	   0.000000	  19.314371	   0.000000; % COW
	2	 0.0	 0.0	 3	   0.000000	  38.451738	   0.000000; % NG
	2	 0.0	 0.0	 3	   0.000000	  50.734367	   0.000000; % NG
	2	 0.0	 0.0	 3	   0.000000	  18.190289	   0.000000; % NG
	2	 0.0	 0.0	 3	   0.000000	  13.622823	   0.000000; % COW
	2	 0.0	 0.0	 3	   0.000000	  15.772545	   0.000000; % COW
	2	 0.0	 0.0	 3	   0.000000	   6.401537	   0.000000; % NUC
	2	 0.0	 0.0	 3	   0.000000	  11.716552	   0.000000; % NG
	2	 0.0	 0.0	 3	   0.000000	  47.119731	   0.000000; % NG
	2	 0.0	 0.0	 3	   0.000000	  31.149176	   0.000000; % NG
	2	 0.0	 0.0	 3	   0.000000	  52.252074	   0.000000; % NG
	2	 0.0	 0.0	 3	   0.000000	  42.289232	   0.000000; % COW
	2	 0.0	 0.0	 3	   0.000000	  19.827384	   0.000000; % COW
	2	 0.0	 0.0	 3	   0.000000	  30.994421	   0.000000; % NG
	2	 0.0	 0.0	 3	   0.000000	  23.087627	   0.000000; % NG
	2	 0.0	 0.0	 3	   0.000000	  30.410109	   0.000000; % NG
	2	 0.0	 0.0	 3	   0.000000	  42.061393	   0.000000; % NG
	2	 0.0	 0.0	 3	   0.000000	  13.528205	   0.000000; % NG
	2	 0.0	 0.0	 3	   0.000000	  22.318639	   0.000000; % NG
	2	 0.0	 0.0	 3	   0.000000	   7.286122	   0.000000; % NUC
	2	 0.0	 0.0	 3	   0.000000	  16.163955	   0.000000; % COW
	2	 0.0	 0.0	 3	   0.000000	  24.863274	   0.000000; % NG
	2	 0.0	 0.0	 3	   0.000000	  39.593449	   0.000000; % NG
	2	 0.0	 0.0	 3	   0.000000	  23.146839	   0.000000; % NG
	2	 0.0	 0.0	 3	   0.000000	  28.596368	   0.000000; % NG
	2	 0.0	 0.0	 3	   0.000000	  39.676019	   0.000000; % NG
	2	 0.0	 0.0	 3	   0.000000	  18.557881	   0.000000; % NG
	2	 0.0	 0.0	 3	   0.000000	  40.790701	   0.000000; % NG
	2	 0.0	 0.0	 3	   0.000000	  32.541366	   0.000000; % NG
	2	 0.0	 0.0	 3	   0.000000	  37.005568	   0.000000; % COW
	2	 0.0	 0.0	 3	   0.000000	  26.573790	   0.000000; % NG
	2	 0.0	 0.0	 3	   0.000000	 122.471408	   0.000000; % PEL
	2	 0.0	 0.0	 3	   0.000000	  87.298562	   0.000000; % PEL
	2	 0.0	 0.0	 3	   0.000000	  45.713561	   0.000000; % NG
	2	 0.0	 0.0	 3	   0.000000	  19.897311	   0.000000; % COW
	2	 0.0	 0.0	 3	   0.000000	  34.675388	   0.000000; % NG
	2	 0.0	 0.0	 3	   0.000000	 117.149805	   0.000000; % PEL
	2	 0.0	 0.0	 3	   0.000000	  45.391092	   0.000000; % NG
	2	 0.0	 0.0	 3	   0.000000	  28.198266	   0.000000; % NG
	2	 0.0	 0.0	 3	   0.000000	  34.726503	   0.000000; % NG
	2	 0.0	 0.0	 3	   0.000000	 101.404288	   0.000000; % PEL
	2	 0.0	 0.0	 3	   0.000000	  38.195408	   0.000000; % NG
	2	 0.0	 0.0	 3	   0.000000	  49.003210	   0.000000; % NG
	2	 0.0	 0.0	 3	   0.000000	  25.349767	   0.000000; % COW
	2	 0.0	 0.0	 3	   0.000000	  38.952681	   0.000000; % NG
	2	 0.0	 0.0	 3	   0.000000	  31.996407	   0.000000; % NG
	2	 0.0	 0.0	 3	   0.000000	  32.766012	   0.000000; % NG
	2	 0.0	 0.0	 3	   0.000000	  19.478966	   0.000000; % NG
	2	 0.0	 0.0	 3	   0.000000	  37.708804	   0.000000; % NG
	2	 0.0	 0.0	 3	   0.000000	  31.995682	   0.000000; % NG
	2	 0.0	 0.0	 3	   0.000000	  36.913662	   0.000000; % NG
	2	 0.0	 0.0	 3	   0.000000	  44.302434	   0.000000; % NG
	2	 0.0	 0.0	 3	   0.000000	  20.090994	   0.000000; % NG
...